40

S -0.755508 1.687827 3.348036
S -2.267386 3.683471 2.136001
F -1.341918 0.462953 5.587301
F -0.583174 2.597993 5.797322
F -2.627014 2.121504 5.092997
F -2.462736 5.356220 4.228810
F -1.724490 6.425169 2.402381
F -3.733016 5.824391 2.582084
O 0.625610 1.364968 3.452329
O -1.569563 0.710585 2.598161
O -3.332533 2.787326 2.589195
O -2.064987 3.814903 0.689087
N -0.860016 3.175997 2.844718
C -1.359899 1.700045 5.043077
C -2.564942 5.434818 2.813898
N 1.390324 0.000000 -0.000000
N 0.663874 2.035700 -0.297651
C 2.350244 -1.042281 0.294625
C 2.852070 -1.049943 1.764970
C 1.812959 -1.525589 2.816497
C 1.754987 1.317733 -0.000000
C 0.000000 0.000000 -0.000000
C -0.478953 1.329827 -0.213460
C 1.495119 -3.010409 2.633222
C 0.648554 3.482493 -0.629700
H 3.167680 -0.986874 -0.435874
H 1.936096 -2.046259 0.141625
H 3.646992 -1.804329 1.754977
H 3.349867 -0.105009 2.041730
H 0.895835 -0.944181 2.671424
H 2.228330 -1.386692 3.827771
H 2.779425 1.667823 -0.045436
H -0.478594 -0.972788 0.091282
H -1.492170 1.697870 -0.291143
H 1.162967 -3.358792 3.611845
H 0.687969 -3.147054 1.908835
H 2.342332 -3.682811 2.475092
H 0.867712 3.982580 0.316441
H -0.312661 3.826811 -1.014031
H 1.472607 3.738234 -1.307073
