40

S -961.978436 -134.897372 7.470059
S -962.177176 -136.870379 5.461938
F -961.287828 -133.178106 5.514711
F -962.533798 -132.306596 7.103524
F -963.464575 -133.591866 5.575344
F -961.114429 -138.998720 6.435196
F -963.158777 -139.546149 5.807931
F -962.750619 -138.218046 7.638163
O -963.339579 -135.325855 7.959029
O -961.034420 -134.528708 8.499583
O -963.531913 -136.351021 5.200870
O -961.274446 -137.080078 4.281894
N -961.299075 -136.014347 6.573490
C -962.329221 -133.444402 6.401495
C -962.339187 -138.476106 6.351878
N 1.404849 0.000000 0.000000
N 0.751113 2.079702 -0.063014
C 2.241807 -1.190914 0.046085
C 2.782079 -1.421464 1.468461
C 3.597967 -2.732492 1.655360
C 1.856428 1.291153 0.000000
C 0.000000 0.000000 0.000000
C -0.397338 1.327286 -0.025186
C 2.763429 -4.019203 1.471180
C 0.791117 3.511007 -0.171935
H 3.052428 -1.051085 -0.668507
H 1.660108 -2.074866 -0.256662
H 1.971458 -1.433036 2.212208
H 3.428981 -0.577201 1.740008
H 4.397626 -2.760381 0.906850
H 4.056807 -2.717856 2.640526
H 2.899244 1.612870 -0.005577
H -0.582839 -0.914068 -0.029632
H -1.365841 1.797916 0.089312
H 1.879491 -4.011715 2.120792
H 3.360646 -4.897790 1.727921
H 2.420616 -4.144047 0.439195
H 0.383386 3.844293 -1.133900
H 0.217675 3.947791 0.657393
H 1.802329 3.904189 -0.046005
