40

S 0.309316 0.364534 3.519849
S 3.077511 0.706356 3.668363
F 0.290634 -0.502690 6.028369
F 0.216942 1.701687 5.894989
F -1.471715 0.464619 5.373740
F 4.464365 -1.596394 3.858558
F 5.424437 0.076905 4.864953
F 3.508430 -0.793862 5.607166
O -0.689567 -0.567262 2.953644
O 0.230177 1.784664 3.038008
O 2.768884 1.822533 4.572686
O 3.637547 0.982800 2.360182
N 1.724848 -0.221248 3.332424
C -0.127325 0.514661 5.282576
C 4.185105 -0.435977 4.579631
N 1.450621 0.000000 -0.000000
N 0.857702 2.082371 0.138132
C 2.241317 -1.235519 0.009607
C 1.387406 -2.452766 -0.557532
C 1.008051 -2.440306 -2.113821
C 1.961850 1.279080 -0.000000
C 0.000000 0.000000 -0.000000
C -0.321242 1.323630 -0.002598
C 0.131530 -3.677208 -2.431756
C 0.907749 3.543354 0.263120
H 2.524023 -1.393154 1.061333
H 3.217106 -1.070910 -0.445848
H 1.964332 -3.376431 -0.451233
H 0.504267 -2.691307 0.043353
H 1.888089 -2.439994 -2.765077
H 0.472281 -1.518314 -2.387462
H 2.979070 1.605617 0.169815
H -0.625112 -0.887845 0.012900
H -1.269112 1.834528 0.049607
H -0.181233 -3.728579 -3.479821
H 0.726792 -4.538934 -2.135123
H -0.809585 -3.697047 -1.867035
H 1.358384 3.813566 1.224585
H -0.124292 3.927310 0.243904
H 1.521625 3.973014 -0.542143
