40

S -188.223875 502.777594 1153.882020
S -189.613526 501.895470 1156.149204
F -186.465431 500.747560 1153.775095
F -185.998330 502.463165 1152.497865
F -187.590704 501.099765 1151.922202
F -190.309488 499.355397 1156.001662
F -191.977013 500.713991 1155.933944
F -191.006729 500.380484 1157.874749
O -188.788288 503.615026 1152.805523
O -187.486857 503.496681 1154.883977
O -188.357413 501.630360 1156.887917
O -190.317302 503.140464 1156.497759
N -189.454843 501.879162 1154.473659
C -187.014643 501.689991 1152.955589
C -190.777583 500.505075 1156.514135
N 1.407835 0.000000 0.000000
N 0.694542 2.078558 0.036176
C 2.256372 -1.146038 -0.133724
C 2.697333 -1.827727 1.200462
C 1.639538 -2.781243 1.800861
C 1.820952 1.327831 0.000000
C 0.000000 0.000000 0.000000
C -0.442239 1.307393 0.056998
C 1.264921 -3.941511 0.849157
C 0.688291 3.540704 -0.052653
H 1.756598 -1.867918 -0.797588
H 3.162302 -0.813657 -0.644522
H 2.975206 -1.048934 1.928519
H 3.602694 -2.403945 1.015008
H 2.066861 -3.193068 2.727141
H 0.759038 -2.207714 2.105792
H 2.830587 1.708529 -0.042491
H -0.600638 -0.906265 0.010843
H -1.429997 1.742282 0.023735
H 0.651213 -3.592872 0.013805
H 0.656611 -4.700340 1.367941
H 2.155934 -4.445937 0.474124
H -0.323049 3.919819 0.143721
H 1.364932 3.958429 0.693109
H 1.018159 3.848820 -1.051778
