124
Final Frame from Quantum Espresso Output
Ti -2.8674028313 2.1877697981 11.2218949684
Ti 7.8440014210 5.0858705665 1.8600544332
Ti 1.2209262845 -1.6933336221 9.3434342004
Ti 2.6982843219 7.4763577815 3.6885572884
Ti 1.7357051304 9.1185889284 1.7589367271
Ti 3.0381082343 -1.9968621795 11.3307486237
Ti -1.9534796861 0.4852015267 9.3014686654
Ti 5.9231897539 5.4046393161 3.7529544835
H 3.6914817674 1.6166149000 8.6891179164
H -0.2154156665 -4.2579906289 6.5070219483
H 4.6897903777 10.8066474964 4.6409365982
H -2.1573316904 6.1215382602 11.0159006380
H 8.5287844280 1.1541495266 2.1636937046
H -6.7822473839 1.3261647838 10.8693180524
H 11.2151778613 7.2264361754 2.0618946293
H 4.3016629349 -6.0367070317 10.9776579369
H -2.4000005236 8.7029412796 2.0544112952
H 4.6606869689 3.0940270605 6.9062822507
H -0.0604720384 3.6981358289 8.3775241220
H -3.7198772390 -1.7639811361 6.3312796799
H 2.1948087465 7.4628208210 -0.1165150932
H 5.9959881613 4.8141944307 0.1301098538
H 3.7629254931 -2.4322448675 5.8333567557
H 0.9901352177 9.3506362172 7.2716867463
H -5.8625851202 4.0978651031 8.9686803886
H 10.6623649486 3.0019213748 4.1613421500
H -3.6931881316 2.4320447429 5.6454646189
H -1.2271817349 11.2083937827 4.0856597337
H 1.9232908105 12.2171453120 2.5629545370
H 8.3280154294 -0.8627424576 3.3559899694
H 4.8118268579 7.1702971477 2.3860294365
H 0.1705742884 0.1838392156 10.5891500012
H 7.3778546041 -0.2329407125 9.7776248701
H 5.8683790444 -0.6860017937 10.5201207546
H 8.0971543760 4.7743452598 8.6406796248
H 7.4666217616 5.0285968768 7.0272393980
H 6.8511386683 -4.9591263086 9.5584247599
H 5.5538120075 -3.8748877212 10.0170958842
H 1.3434580889 1.9454113845 9.4114401332
H 0.9054700711 5.1781832863 6.5929320473
H 5.9566711719 8.8195658070 3.8805660564
H -7.7557595204 8.8666839370 4.7354317825
C 8.5258512719 4.4273080221 4.7119046510
C -3.7952184348 2.5515674961 8.3820290098
C 3.8336671718 -2.6482762275 8.4694239907
C 0.8405064964 9.5425984971 4.6047513682
C 9.4443823683 3.8595210313 5.7055852221
C -4.6955925701 3.2114386893 7.4036738051
C 4.7964620487 -3.2353707183 7.5325683766
C -0.0289178881 10.2194797507 5.5984035792
C 9.2509288407 4.0185203159 7.1146414302
C -4.5168756734 3.0397850024 6.0148889055
C 5.8941119047 -4.0408597761 7.9901879061
C -1.0815342178 11.0510145757 5.1526599566
C 0.1757676934 10.0047988758 6.9570108768
C 4.6086136342 -3.0443864180 6.1462956932
C 10.5438515654 3.1018923992 5.2399367356
C -5.7518359424 3.9793542324 7.8903061849
C 2.8421707137 4.2256447624 6.6501890352
C 1.7623792922 2.5791717027 8.6309271358
C 6.3814824754 9.4714227775 4.6432952254
C -1.9103735117 -2.9235782207 6.5221897616
C 8.7297435155 1.2249133714 0.0343823661
C 2.2604876563 13.0754261390 0.0547106590
C 11.1834903536 7.0032781449 -0.0746000357
C -2.1550418890 8.5959467957 -0.0935678004
C 3.4211547359 5.1090440825 5.6118602404
C -1.3072925998 -2.0098885896 7.5199483364
C 8.5865343252 2.7003765301 0.0118010320
C 2.1975125219 11.6253483865 0.0108907159
C 9.8684777627 6.3879406381 -0.0293987854
C -0.7441725383 9.0480767770 -0.0622050746
C 1.5065715319 4.3970171809 7.0581748184
C 3.0886507515 2.3977970313 8.2245284648
C 5.6698871090 10.5973754921 5.0710464077
C -1.2034517966 -4.0613709576 6.0921024691
C 8.6484154963 0.5633150116 1.2545147456
C -2.2568012878 6.7121904672 11.9257505305
C 11.7909661099 7.3742161410 1.1494590522
C -7.3686046501 1.1994324896 11.7808028116
C 7.6446687137 9.1883711001 5.1733107248
C -3.1848565695 -2.6509430073 5.9925266620
C 3.6292380243 3.2173060449 7.2362999293
C 0.9711484190 3.5739059003 8.0465150152
C 7.2692881349 0.1179844894 11.7930699802
C -2.8739773433 8.4392388850 1.1113492480
C 4.2442038011 -6.5677672403 11.9260941396
C 2.1376117685 13.8123002862 1.2802309594
N 2.0414708720 13.2226039301 2.5038055587
N 6.7516635010 -0.1898426881 10.5694451917
N 8.2234593070 4.7437045443 7.6390736852
N 6.1685076864 -4.2585209340 9.3059602323
O 7.3604906550 4.8588339583 5.0934775092
O -3.0261029985 1.5988109466 7.9775506515
O 4.1642518076 -2.5838491882 9.7082859507
O 0.7757957982 9.9388037028 3.3952498245
O 1.5968321293 8.5745283392 4.9970024120
O 2.6820375888 -2.2418949151 8.0459632106
O 8.8883539146 4.4496374603 3.4869108992
O -3.8541074933 2.9405778228 9.5945391550
O 6.2091866966 4.1744663458 2.5553716240
O -1.3731981077 2.0214879912 10.1311348805
O 7.1419308030 6.4673091458 2.9074740160
O -3.1548773568 0.3282882326 10.5500973534
O 1.4589704429 -2.8993056349 10.5894862383
O 3.2495289897 9.0072234272 2.8603136798
O 2.4015372994 -0.6175755680 10.2570176991
O 1.4958434895 7.2868811110 2.4335504275
O 4.6354805005 4.9186279024 5.2514964310
O -1.9856923786 -1.0003663391 7.9200279321
O 3.8539269659 -3.7901044220 11.9701376684
O 2.1192715045 10.9539420116 1.1085161291
O 4.6292806440 -0.9847468779 11.9698040382
O -0.1843114536 9.1664944538 1.0792365775
O -0.1264372629 -2.2633166121 7.9457068743
O 2.6898525574 6.0332708613 5.1153062819
O 9.3239498851 6.1348226526 1.1085448332
O -4.7927727898 2.2087478048 11.9234435509
O 8.5482713605 3.3163652520 1.1278994054
O -2.4380561742 3.9552270576 11.9686797159
O 4.4431196218 6.6173785071 3.0980941812
O -0.2248448544 -0.3875409746 9.9067782702
O 6.8433987121 5.2901495041 0.0629907435
O 2.3032006078 8.4295485285 -0.0667490475
