          40
  Built with Packmol                                             
  S           -0.004372       -0.782196        1.491805
  S           -0.004362       -0.782291       -1.491995
  F            1.222456        1.245943        2.541413
  F           -0.246716        0.283191        3.835006
  F           -0.910352        1.545772        2.184506
  F           -0.250190        0.283905       -3.834394
  F            1.223474        1.243752       -2.543987
  F           -0.907937        1.547380       -2.182294
  O           -1.363956       -1.283441        1.459000
  O            1.106755       -1.634760        1.864608
  O            1.106668       -1.634953       -1.864592
  O           -1.363946       -1.283436       -1.459000
  N            0.359407       -0.005181        0.000008
  C            0.016477        0.628103        2.551308
  C            0.016595        0.628212       -2.551392
  N            6.450721        2.601087        4.337083
  N            5.245022        4.285804        4.898245
  C            7.107350        1.584134        3.521586
  C            6.261448        0.323235        3.358336
  C            4.914540        0.597930        2.688473
  C            5.651970        3.550868        3.858228
  C            6.564645        2.717278        5.694690
  C            5.797633        3.789255        6.054271
  C            4.103715       -0.678647        2.527709
  C            4.359113        5.427428        4.810329
  H            7.329476        2.023726        2.541861
  H            8.067889        1.332088        3.985690
  H            6.089190       -0.125095        4.344425
  H            6.825481       -0.406935        2.766042
  H            4.323980        1.298941        3.287063
  H            5.072163        1.054949        1.704938
  H            5.383728        3.706018        2.824762
  H            7.179200        2.015027        6.224075
  H            5.562839        4.275890        6.981303
  H            3.900846       -1.139888        3.499514
  H            4.636257       -1.405642        1.906287
  H            3.144388       -0.460552        2.048261
  H            4.053094        5.586339        3.772795
  H            3.471918        5.243769        5.422473
  H            4.881671        6.317172        5.171946
