          40
  Built with Packmol                                             
  S           -0.004372       -0.782196        1.491805
  S           -0.004362       -0.782291       -1.491995
  F            1.222456        1.245943        2.541413
  F           -0.246716        0.283191        3.835006
  F           -0.910352        1.545772        2.184506
  F           -0.250190        0.283905       -3.834394
  F            1.223474        1.243752       -2.543987
  F           -0.907937        1.547380       -2.182294
  O           -1.363956       -1.283441        1.459000
  O            1.106755       -1.634760        1.864608
  O            1.106668       -1.634953       -1.864592
  O           -1.363946       -1.283436       -1.459000
  N            0.359407       -0.005181        0.000008
  C            0.016477        0.628103        2.551308
  C            0.016595        0.628212       -2.551392
  N            3.018894        1.731975       10.106642
  N            4.167841        1.756049        8.293847
  C            2.216349        1.248547       11.225843
  C            0.717474        1.287184       10.936105
  C            0.325936        0.428666        9.732785
  C            3.484699        0.963414        9.125965
  C            3.399743        3.030804        9.912806
  C            4.131307        3.048574        8.759013
  C           -1.173002        0.477148        9.480269
  C            4.839763        1.312017        7.090840
  H            2.533914        0.224525       11.455999
  H            2.442457        1.860517       12.106708
  H            0.412562        2.324832       10.753467
  H            0.176246        0.943685       11.825586
  H            0.831497        0.782034        8.828337
  H            0.633429       -0.610111        9.898445
  H            3.344286       -0.101088        9.020153
  H            3.094559        3.771259       10.626719
  H            4.637788        3.807770        8.194717
  H           -1.503983        1.500589        9.276982
  H           -1.728616        0.101298       10.345323
  H           -1.431966       -0.141741        8.615596
  H            4.687308        0.238576        6.949917
  H            4.431429        1.848920        6.230281
  H            5.910375        1.514926        7.180821
