          40
  Built with Packmol                                             
  S           -0.004372       -0.782196        1.491805
  S           -0.004362       -0.782291       -1.491995
  F            1.222456        1.245943        2.541413
  F           -0.246716        0.283191        3.835006
  F           -0.910352        1.545772        2.184506
  F           -0.250190        0.283905       -3.834394
  F            1.223474        1.243752       -2.543987
  F           -0.907937        1.547380       -2.182294
  O           -1.363956       -1.283441        1.459000
  O            1.106755       -1.634760        1.864608
  O            1.106668       -1.634953       -1.864592
  O           -1.363946       -1.283436       -1.459000
  N            0.359407       -0.005181        0.000008
  C            0.016477        0.628103        2.551308
  C            0.016595        0.628212       -2.551392
  N           -4.371358        1.285749       -5.888125
  N           -3.533224        3.052890       -6.772221
  C           -4.584210       -0.115657       -5.540064
  C           -5.533194       -0.824547       -6.503896
  C           -5.023594       -0.819398       -7.945636
  C           -3.410041        1.723810       -6.696432
  C           -5.124296        2.333483       -5.435453
  C           -4.592561        3.459724       -5.997219
  C           -5.983033       -1.544830       -8.876312
  C           -2.677384        3.921451       -7.552611
  H           -3.608599       -0.616148       -5.528451
  H           -4.982451       -0.164712       -4.519988
  H           -6.514979       -0.336956       -6.466528
  H           -5.673276       -1.858210       -6.166241
  H           -4.912425        0.206997       -8.309839
  H           -4.038044       -1.296084       -7.995777
  H           -2.665354        1.123590       -7.195686
  H           -5.943057        2.133207       -4.771674
  H           -4.820754        4.507348       -5.955486
  H           -6.968623       -1.068484       -8.873103
  H           -6.105246       -2.590358       -8.575941
  H           -5.601264       -1.528765       -9.901855
  H           -1.930700        3.329760       -8.089027
  H           -3.285305        4.473015       -8.274949
  H           -2.169413        4.621629       -6.883885
