          40
  Built with Packmol                                             
  S           -0.004372       -0.782196        1.491805
  S           -0.004362       -0.782291       -1.491995
  F            1.222456        1.245943        2.541413
  F           -0.246716        0.283191        3.835006
  F           -0.910352        1.545772        2.184506
  F           -0.250190        0.283905       -3.834394
  F            1.223474        1.243752       -2.543987
  F           -0.907937        1.547380       -2.182294
  O           -1.363956       -1.283441        1.459000
  O            1.106755       -1.634760        1.864608
  O            1.106668       -1.634953       -1.864592
  O           -1.363946       -1.283436       -1.459000
  N            0.359407       -0.005181        0.000008
  C            0.016477        0.628103        2.551308
  C            0.016595        0.628212       -2.551392
  N            3.108826        0.973485       -8.153928
  N            1.034544        0.424664       -8.209010
  C            4.548452        0.954575       -8.393745
  C            5.310199        0.149264       -7.343372
  C            4.871231       -1.314497       -7.288209
  C            2.252075        0.079722       -8.640297
  C            2.447095        1.904562       -7.402408
  C            1.126170        1.557035       -7.435915
  C            5.658016       -2.091188       -6.243865
  C           -0.186532       -0.290338       -8.514973
  H            4.722251        0.538333       -9.393234
  H            4.912819        1.988293       -8.408573
  H            5.159812        0.608368       -6.358664
  H            6.382638        0.204293       -7.564596
  H            3.809177       -1.387410       -7.032841
  H            5.007823       -1.783259       -8.269359
  H            2.489702       -0.764131       -9.269202
  H            3.010753        2.692448       -6.941313
  H            0.225869        1.959816       -7.013356
  H            5.512644       -1.665371       -5.245941
  H            6.728878       -2.078795       -6.470556
  H            5.328357       -3.134486       -6.219390
  H            0.035319       -1.166285       -9.130503
  H           -0.657286       -0.615819       -7.583299
  H           -0.863878        0.371553       -9.061397
