          40
  Built with Packmol                                             
  S           -0.004372       -0.782196        1.491805
  S           -0.004362       -0.782291       -1.491995
  F            1.222456        1.245943        2.541413
  F           -0.246716        0.283191        3.835006
  F           -0.910352        1.545772        2.184506
  F           -0.250190        0.283905       -3.834394
  F            1.223474        1.243752       -2.543987
  F           -0.907937        1.547380       -2.182294
  O           -1.363956       -1.283441        1.459000
  O            1.106755       -1.634760        1.864608
  O            1.106668       -1.634953       -1.864592
  O           -1.363946       -1.283436       -1.459000
  N            0.359407       -0.005181        0.000008
  C            0.016477        0.628103        2.551308
  C            0.016595        0.628212       -2.551392
  N            0.876974       -1.465734       12.180886
  N            2.632945       -2.602308       11.699585
  C           -0.498737       -1.137147       12.541222
  C           -1.401776       -0.963758       11.321991
  C           -1.479766       -2.224641       10.460350
  C            1.340315       -2.702918       12.025714
  C            1.871530       -0.555079       11.954741
  C            2.990540       -1.276489       11.647944
  C           -2.397106       -2.023841        9.264065
  C            3.512654       -3.723054       11.442857
  H           -0.881509       -1.934991       13.188811
  H           -0.492739       -0.216186       13.135655
  H           -1.027668       -0.132506       10.711986
  H           -2.406648       -0.687348       11.662468
  H           -0.487964       -2.493612       10.082895
  H           -1.843913       -3.066083       11.060703
  H            0.782718       -3.618928       12.144408
  H            1.645355        0.490068       12.041900
  H            4.004452       -1.031569       11.396298
  H           -2.037890       -1.210039        8.626104
  H           -3.415324       -1.784239        9.586727
  H           -2.438128       -2.935869        8.660519
  H            2.960082       -4.662284       11.531663
  H            3.918210       -3.639111       10.430908
  H            4.328075       -3.714735       12.171210
