          40
  Built with Packmol                                             
  S           -0.004372       -0.782196        1.491805
  S           -0.004362       -0.782291       -1.491995
  F            1.222456        1.245943        2.541413
  F           -0.246716        0.283191        3.835006
  F           -0.910352        1.545772        2.184506
  F           -0.250190        0.283905       -3.834394
  F            1.223474        1.243752       -2.543987
  F           -0.907937        1.547380       -2.182294
  O           -1.363956       -1.283441        1.459000
  O            1.106755       -1.634760        1.864608
  O            1.106668       -1.634953       -1.864592
  O           -1.363946       -1.283436       -1.459000
  N            0.359407       -0.005181        0.000008
  C            0.016477        0.628103        2.551308
  C            0.016595        0.628212       -2.551392
  N           -5.636611       -2.362849       -2.084969
  N           -6.235797       -2.879797       -4.080119
  C           -5.645955       -2.231257       -0.631357
  C           -6.325887       -0.947552       -0.160334
  C           -7.786768       -0.856051       -0.602812
  C           -6.593508       -2.955141       -2.794140
  C           -4.651374       -1.899371       -2.912055
  C           -5.030829       -2.227257       -4.182978
  C           -8.438245        0.425219       -0.105967
  C           -7.005433       -3.407758       -5.186819
  H           -6.154722       -3.107861       -0.212832
  H           -4.610637       -2.259027       -0.272327
  H           -5.775399       -0.083658       -0.552371
  H           -6.268291       -0.897518        0.933409
  H           -7.858546       -0.868797       -1.695136
  H           -8.346831       -1.718996       -0.225045
  H           -7.489630       -3.415625       -2.408140
  H           -3.809050       -1.394092       -2.480468
  H           -4.609134       -2.086724       -5.159582
  H           -7.919453        1.306467       -0.496559
  H           -8.423642        0.473915        0.987515
  H           -9.481342        0.471942       -0.433854
  H           -7.932525       -3.856063       -4.819534
  H           -7.248099       -2.595657       -5.877595
  H           -6.416488       -4.170584       -5.703267
