          40
  Built with Packmol                                             
  S           -0.004372       -0.782196        1.491805
  S           -0.004362       -0.782291       -1.491995
  F            1.222456        1.245943        2.541413
  F           -0.246716        0.283191        3.835006
  F           -0.910352        1.545772        2.184506
  F           -0.250190        0.283905       -3.834394
  F            1.223474        1.243752       -2.543987
  F           -0.907937        1.547380       -2.182294
  O           -1.363956       -1.283441        1.459000
  O            1.106755       -1.634760        1.864608
  O            1.106668       -1.634953       -1.864592
  O           -1.363946       -1.283436       -1.459000
  N            0.359407       -0.005181        0.000008
  C            0.016477        0.628103        2.551308
  C            0.016595        0.628212       -2.551392
  N            4.397494        0.858553       -8.895298
  N            3.054289       -0.086827      -10.276942
  C            4.895613        1.571518       -7.723142
  C            4.926547        3.085140       -7.923291
  C            3.545128        3.670413       -8.219044
  C            3.118500        0.563088       -9.110382
  C            5.169988        0.399602       -9.925925
  C            4.316831       -0.202588      -10.806966
  C            3.608141        5.179314       -8.398431
  C            1.837673       -0.588208      -10.880540
  H            4.257372        1.312729       -6.869843
  H            5.902685        1.204349       -7.493907
  H            5.604849        3.325198       -8.751133
  H            5.339615        3.552830       -7.021773
  H            3.133964        3.238904       -9.137320
  H            2.854324        3.429714       -7.403013
  H            2.286165        0.797547       -8.465150
  H            6.229236        0.566821       -9.892545
  H            4.430073       -0.703623      -11.749023
  H            4.265653        5.448551       -9.231194
  H            3.983073        5.666441       -7.492661
  H            2.611110        5.577847       -8.610200
  H            0.976917       -0.337330      -10.254811
  H            1.709874       -0.133187      -11.866536
  H            1.906377       -1.674927      -10.979527
