          40
  Built with Packmol                                             
  S           -0.004372       -0.782196        1.491805
  S           -0.004362       -0.782291       -1.491995
  F            1.222456        1.245943        2.541413
  F           -0.246716        0.283191        3.835006
  F           -0.910352        1.545772        2.184506
  F           -0.250190        0.283905       -3.834394
  F            1.223474        1.243752       -2.543987
  F           -0.907937        1.547380       -2.182294
  O           -1.363956       -1.283441        1.459000
  O            1.106755       -1.634760        1.864608
  O            1.106668       -1.634953       -1.864592
  O           -1.363946       -1.283436       -1.459000
  N            0.359407       -0.005181        0.000008
  C            0.016477        0.628103        2.551308
  C            0.016595        0.628212       -2.551392
  N           -2.749120        0.992943       -9.464048
  N           -4.609397        2.024543       -9.750504
  C           -1.558667        0.192806       -9.734219
  C           -1.780645       -1.297053       -9.482991
  C           -2.891687       -1.884108      -10.354361
  C           -3.685516        1.278438      -10.364627
  C           -3.064059        1.555008       -8.258032
  C           -4.248283        2.212252       -8.437988
  C           -3.077391       -3.370361      -10.090739
  C           -5.802785        2.549817      -10.379615
  H           -1.262058        0.363750      -10.775969
  H           -0.741218        0.560338       -9.103146
  H           -2.031622       -1.450669       -8.426366
  H           -0.842290       -1.831465       -9.672695
  H           -3.844080       -1.384256      -10.150444
  H           -2.657644       -1.729105      -11.413724
  H           -3.698909        0.971783      -11.398967
  H           -2.398481        1.408163       -7.429464
  H           -4.894606        2.794579       -7.809902
  H           -3.346577       -3.553063       -9.045529
  H           -2.160093       -3.925313      -10.311828
  H           -3.876636       -3.770419      -10.722329
  H           -5.849861        2.227874      -11.423412
  H           -6.683767        2.178464       -9.849019
  H           -5.779201        3.642239      -10.340428
