          40
  Built with Packmol                                             
  S           -0.004372       -0.782196        1.491805
  S           -0.004362       -0.782291       -1.491995
  F            1.222456        1.245943        2.541413
  F           -0.246716        0.283191        3.835006
  F           -0.910352        1.545772        2.184506
  F           -0.250190        0.283905       -3.834394
  F            1.223474        1.243752       -2.543987
  F           -0.907937        1.547380       -2.182294
  O           -1.363956       -1.283441        1.459000
  O            1.106755       -1.634760        1.864608
  O            1.106668       -1.634953       -1.864592
  O           -1.363946       -1.283436       -1.459000
  N            0.359407       -0.005181        0.000008
  C            0.016477        0.628103        2.551308
  C            0.016595        0.628212       -2.551392
  N           -7.988229       -1.211557       -1.568401
  N           -7.199735       -1.588058        0.392060
  C           -8.374846       -1.408808       -2.961962
  C           -7.270318       -1.016851       -3.940969
  C           -5.987854       -1.824899       -3.739280
  C           -7.394381       -2.131917       -0.813637
  C           -8.181192       -0.063124       -0.851853
  C           -7.679747       -0.300462        0.396731
  C           -4.914257       -1.421070       -4.737900
  C           -6.578670       -2.260000        1.513951
  H           -8.645616       -2.463074       -3.094811
  H           -9.276723       -0.818181       -3.160289
  H           -7.046571        0.050425       -3.823065
  H           -7.637929       -1.158300       -4.964173
  H           -5.588327       -1.665980       -2.732498
  H           -6.199310       -2.894975       -3.845466
  H           -7.123082       -3.132514       -1.112434
  H           -8.650982        0.773345       -1.332166
  H           -7.594637        0.271859        1.300355
  H           -4.657261       -0.362339       -4.631369
  H           -5.250619       -1.591744       -5.765528
  H           -4.005583       -2.009193       -4.576139
  H           -6.271165       -3.268449        1.224384
  H           -5.699118       -1.693607        1.831997
  H           -7.295845       -2.324530        2.336736
