          40
  Built with Packmol                                             
  S           -0.004372       -0.782196        1.491805
  S           -0.004362       -0.782291       -1.491995
  F            1.222456        1.245943        2.541413
  F           -0.246716        0.283191        3.835006
  F           -0.910352        1.545772        2.184506
  F           -0.250190        0.283905       -3.834394
  F            1.223474        1.243752       -2.543987
  F           -0.907937        1.547380       -2.182294
  O           -1.363956       -1.283441        1.459000
  O            1.106755       -1.634760        1.864608
  O            1.106668       -1.634953       -1.864592
  O           -1.363946       -1.283436       -1.459000
  N            0.359407       -0.005181        0.000008
  C            0.016477        0.628103        2.551308
  C            0.016595        0.628212       -2.551392
  N            4.881920        0.230797        8.095190
  N            5.640022       -1.557310        9.008887
  C            4.036198        1.387842        7.818798
  C            2.916165        1.075902        6.828703
  C            1.978059       -0.024838        7.325353
  C            4.661834       -0.647978        9.069205
  C            6.007933       -0.107257        7.397057
  C            6.492270       -1.245617        7.976968
  C            0.866926       -0.300953        6.324317
  C            5.773048       -2.691803        9.898324
  H            3.617752        1.739296        8.769494
  H            4.666633        2.194732        7.427598
  H            3.356233        0.770228        5.871652
  H            2.343325        1.992010        6.642441
  H            2.529586       -0.957425        7.482157
  H            1.538058        0.264138        8.286573
  H            3.850333       -0.631526        9.780030
  H            6.312447        0.511943        6.575507
  H            7.333639       -1.887401        7.799368
  H            1.276703       -0.625830        5.362629
  H            0.260407        0.594457        6.155011
  H            0.208345       -1.091391        6.697443
  H            4.944290       -2.709345       10.611226
  H            5.761417       -3.614087        9.311110
  H            6.716612       -2.611883       10.444930
