          40
  Built with Packmol                                             
  S           -0.004372       -0.782196        1.491805
  S           -0.004362       -0.782291       -1.491995
  F            1.222456        1.245943        2.541413
  F           -0.246716        0.283191        3.835006
  F           -0.910352        1.545772        2.184506
  F           -0.250190        0.283905       -3.834394
  F            1.223474        1.243752       -2.543987
  F           -0.907937        1.547380       -2.182294
  O           -1.363956       -1.283441        1.459000
  O            1.106755       -1.634760        1.864608
  O            1.106668       -1.634953       -1.864592
  O           -1.363946       -1.283436       -1.459000
  N            0.359407       -0.005181        0.000008
  C            0.016477        0.628103        2.551308
  C            0.016595        0.628212       -2.551392
  N           -5.225875        1.473924       -1.118966
  N           -6.889385        0.166077       -1.478347
  C           -4.344186        2.439479       -0.470337
  C           -4.681629        3.883430       -0.835311
  C           -6.104904        4.276292       -0.437462
  C           -6.368248        1.030421       -0.601592
  C           -5.001651        0.896526       -2.337946
  C           -6.059679        0.063485       -2.568943
  C           -6.403936        5.722451       -0.800968
  C           -8.135967       -0.547559       -1.297727
  H           -4.417189        2.293263        0.613975
  H           -3.310213        2.213849       -0.755899
  H           -4.558653        4.019767       -1.916667
  H           -3.963971        4.549866       -0.342437
  H           -6.835592        3.642183       -0.949798
  H           -6.244266        4.135958        0.640469
  H           -6.795762        1.309278        0.348959
  H           -4.113996        1.160378       -2.879733
  H           -6.344365       -0.596597       -3.365546
  H           -6.306169        5.884522       -1.879152
  H           -5.719967        6.405315       -0.286993
  H           -7.426166        5.982973       -0.509562
  H           -8.600199       -0.258910       -0.350865
  H           -8.814250       -0.302925       -2.119707
  H           -7.937094       -1.622658       -1.288286
