          40
  Built with Packmol                                             
  S           -0.004372       -0.782196        1.491805
  S           -0.004362       -0.782291       -1.491995
  F            1.222456        1.245943        2.541413
  F           -0.246716        0.283191        3.835006
  F           -0.910352        1.545772        2.184506
  F           -0.250190        0.283905       -3.834394
  F            1.223474        1.243752       -2.543987
  F           -0.907937        1.547380       -2.182294
  O           -1.363956       -1.283441        1.459000
  O            1.106755       -1.634760        1.864608
  O            1.106668       -1.634953       -1.864592
  O           -1.363946       -1.283436       -1.459000
  N            0.359407       -0.005181        0.000008
  C            0.016477        0.628103        2.551308
  C            0.016595        0.628212       -2.551392
  N           -0.525005       -2.622525       -9.207807
  N           -1.194710       -4.599732       -9.706839
  C           -0.462372       -1.300905       -8.591538
  C           -1.210165       -0.239754       -9.395798
  C           -2.696386       -0.560446       -9.559004
  C           -1.472621       -3.523579       -8.963849
  C            0.374018       -3.113254      -10.113631
  C           -0.050474       -4.372058      -10.432942
  C           -3.414211        0.521477      -10.350901
  C           -1.983191       -5.813557       -9.735067
  H           -0.878725       -1.376261       -7.579899
  H            0.590651       -1.015692       -8.484987
  H           -0.749821       -0.148371      -10.387148
  H           -1.094982        0.729301       -8.896039
  H           -2.828437       -1.509325      -10.088795
  H           -3.167138       -0.663572       -8.574723
  H           -2.308015       -3.413140       -8.290057
  H            1.198534       -2.494573      -10.411105
  H            0.303621       -5.148866      -11.082954
  H           -2.986657        0.623189      -11.353476
  H           -3.341741        1.490081       -9.846081
  H           -4.474662        0.272794      -10.457414
  H           -2.851396       -5.712812       -9.078221
  H           -2.325352       -5.997974      -10.757065
  H           -1.368081       -6.650316       -9.393085
