          40
  Built with Packmol                                             
  S           -0.004372       -0.782196        1.491805
  S           -0.004362       -0.782291       -1.491995
  F            1.222456        1.245943        2.541413
  F           -0.246716        0.283191        3.835006
  F           -0.910352        1.545772        2.184506
  F           -0.250190        0.283905       -3.834394
  F            1.223474        1.243752       -2.543987
  F           -0.907937        1.547380       -2.182294
  O           -1.363956       -1.283441        1.459000
  O            1.106755       -1.634760        1.864608
  O            1.106668       -1.634953       -1.864592
  O           -1.363946       -1.283436       -1.459000
  N            0.359407       -0.005181        0.000008
  C            0.016477        0.628103        2.551308
  C            0.016595        0.628212       -2.551392
  N            4.618406       -0.296236        8.613736
  N            3.247439       -0.300281        6.962277
  C            5.136410       -0.250056        9.977529
  C            5.443460        1.171497       10.443334
  C            4.211641        2.077429       10.427754
  C            3.329021       -0.225314        8.294605
  C            5.380307       -0.417661        7.484870
  C            4.509499       -0.420299        6.432051
  C            4.547710        3.479985       10.910273
  C            2.014937       -0.260884        6.203822
  H            4.396913       -0.716720       10.639202
  H            6.043577       -0.863401       10.026634
  H            6.217025        1.603244        9.796623
  H            5.857386        1.129736       11.457738
  H            3.807156        2.157975        9.413658
  H            3.426636        1.652445       11.063528
  H            2.500559       -0.130001        8.979179
  H            6.446404       -0.484407        7.585193
  H            4.609808       -0.491062        5.366096
  H            5.306283        3.943643       10.271607
  H            4.927202        3.460933       11.936874
  H            3.654405        4.111929       10.890348
  H            1.162959       -0.137415        6.877815
  H            2.046747        0.581116        5.506980
  H            1.903174       -1.196897        5.649867
