          40
  Built with Packmol                                             
  S           -0.004372       -0.782196        1.491805
  S           -0.004362       -0.782291       -1.491995
  F            1.222456        1.245943        2.541413
  F           -0.246716        0.283191        3.835006
  F           -0.910352        1.545772        2.184506
  F           -0.250190        0.283905       -3.834394
  F            1.223474        1.243752       -2.543987
  F           -0.907937        1.547380       -2.182294
  O           -1.363956       -1.283441        1.459000
  O            1.106755       -1.634760        1.864608
  O            1.106668       -1.634953       -1.864592
  O           -1.363946       -1.283436       -1.459000
  N            0.359407       -0.005181        0.000008
  C            0.016477        0.628103        2.551308
  C            0.016595        0.628212       -2.551392
  N            6.736744       -1.194788       -4.863496
  N            5.471459        0.232395       -5.847918
  C            7.414660       -2.446123       -4.539488
  C            6.624082       -3.307225       -3.556859
  C            5.245651       -3.698746       -4.090686
  C            5.879913       -1.040432       -5.869180
  C            6.887174       -0.017912       -4.183856
  C            6.082325        0.892255       -4.808801
  C            4.490906       -4.566790       -3.095803
  C            4.530753        0.816684       -6.780412
  H            7.585446       -2.993423       -5.474227
  H            8.399888       -2.210375       -4.120795
  H            6.503693       -2.759675       -2.614131
  H            7.203043       -4.211065       -3.333315
  H            4.641766       -2.806599       -4.285323
  H            5.351100       -4.239228       -5.038215
  H            5.572759       -1.796295       -6.575157
  H            7.550075        0.011318       -3.340771
  H            5.853876        1.929976       -4.659552
  H            4.340115       -4.038403       -2.149033
  H            5.037373       -5.492662       -2.889835
  H            3.508002       -4.834635       -3.495682
  H            4.185580        0.059601       -7.489677
  H            3.672556        1.209855       -6.228615
  H            5.022035        1.625628       -7.327887
