          40
  Built with Packmol                                             
  S           -0.004372       -0.782196        1.491805
  S           -0.004362       -0.782291       -1.491995
  F            1.222456        1.245943        2.541413
  F           -0.246716        0.283191        3.835006
  F           -0.910352        1.545772        2.184506
  F           -0.250190        0.283905       -3.834394
  F            1.223474        1.243752       -2.543987
  F           -0.907937        1.547380       -2.182294
  O           -1.363956       -1.283441        1.459000
  O            1.106755       -1.634760        1.864608
  O            1.106668       -1.634953       -1.864592
  O           -1.363946       -1.283436       -1.459000
  N            0.359407       -0.005181        0.000008
  C            0.016477        0.628103        2.551308
  C            0.016595        0.628212       -2.551392
  N            6.466923        0.411734       -3.161050
  N            6.001407       -0.422942       -1.239203
  C            6.401869        0.712014       -4.587932
  C            7.224824       -0.258424       -5.432362
  C            6.763506       -1.708750       -5.283783
  C            5.627326       -0.398647       -2.522499
  C            7.392112        0.917466       -2.290513
  C            7.097766        0.387243       -1.066191
  C            7.592725       -2.646463       -6.147508
  C            5.345969       -1.187481       -0.199132
  H            5.349294        0.685953       -4.894281
  H            6.756674        1.737232       -4.744770
  H            8.279732       -0.183778       -5.141434
  H            7.158105        0.043585       -6.484234
  H            6.857931       -2.036981       -4.243670
  H            5.707300       -1.795829       -5.562882
  H            4.796033       -0.934258       -2.953948
  H            8.140512        1.589404       -2.663982
  H            7.518646        0.472058       -0.082831
  H            8.650144       -2.606286       -5.867227
  H            7.507206       -2.382496       -7.206420
  H            7.247999       -3.678036       -6.025991
  H            4.515305       -1.759947       -0.620626
  H            6.065968       -1.876880        0.250194
  H            4.962047       -0.503528        0.562636
