          40
  Built with Packmol                                             
  S           -0.004372       -0.782196        1.491805
  S           -0.004362       -0.782291       -1.491995
  F            1.222456        1.245943        2.541413
  F           -0.246716        0.283191        3.835006
  F           -0.910352        1.545772        2.184506
  F           -0.250190        0.283905       -3.834394
  F            1.223474        1.243752       -2.543987
  F           -0.907937        1.547380       -2.182294
  O           -1.363956       -1.283441        1.459000
  O            1.106755       -1.634760        1.864608
  O            1.106668       -1.634953       -1.864592
  O           -1.363946       -1.283436       -1.459000
  N            0.359407       -0.005181        0.000008
  C            0.016477        0.628103        2.551308
  C            0.016595        0.628212       -2.551392
  N            1.169264       -2.148473       -8.628484
  N            3.143088       -1.782489       -7.868906
  C           -0.029577       -2.059684       -9.456305
  C           -1.025904       -1.023358       -8.941107
  C           -0.439083        0.387926       -8.893633
  C            2.269817       -1.425308       -8.816109
  C            1.325741       -2.980161       -7.554526
  C            2.581770       -2.748751       -7.069158
  C           -1.459721        1.397068       -8.390780
  C            4.473112       -1.231185       -7.717353
  H            0.279861       -1.815337      -10.479527
  H           -0.502839       -3.047793       -9.491250
  H           -1.356710       -1.310541       -7.935555
  H           -1.911759       -1.032579       -9.587072
  H            0.426148        0.421572       -8.223760
  H           -0.095869        0.684134       -9.891389
  H            2.433532       -0.690641       -9.589115
  H            0.515310       -3.626931       -7.278895
  H            3.163935       -3.139355       -6.256851
  H           -1.795568        1.145279       -7.379783
  H           -2.335725        1.428575       -9.046456
  H           -1.020297        2.399009       -8.363133
  H            4.650306       -0.463896       -8.475803
  H            4.567133       -0.783259       -6.724334
  H            5.209644       -2.030662       -7.834975
