          40
  Built with Packmol                                             
  S           -0.004372       -0.782196        1.491805
  S           -0.004362       -0.782291       -1.491995
  F            1.222456        1.245943        2.541413
  F           -0.246716        0.283191        3.835006
  F           -0.910352        1.545772        2.184506
  F           -0.250190        0.283905       -3.834394
  F            1.223474        1.243752       -2.543987
  F           -0.907937        1.547380       -2.182294
  O           -1.363956       -1.283441        1.459000
  O            1.106755       -1.634760        1.864608
  O            1.106668       -1.634953       -1.864592
  O           -1.363946       -1.283436       -1.459000
  N            0.359407       -0.005181        0.000008
  C            0.016477        0.628103        2.551308
  C            0.016595        0.628212       -2.551392
  N            2.828662        4.864546       -1.417628
  N            4.832423        5.031318       -0.666617
  C            1.704884        4.778844       -2.345081
  C            1.126277        6.147403       -2.697684
  C            2.151185        7.069681       -3.358970
  C            4.101521        4.983789       -1.785053
  C            2.729508        4.834488       -0.054235
  C            4.004150        4.940699        0.426127
  C            1.540251        8.417363       -3.710315
  C            6.273913        5.158179       -0.623263
  H            2.048702        4.265375       -3.250940
  H            0.928445        4.149817       -1.894499
  H            0.747535        6.624226       -1.785414
  H            0.269958        6.007433       -3.367924
  H            2.996896        7.248099       -2.687087
  H            2.544852        6.600759       -4.267921
  H            4.478658        5.029188       -2.794895
  H            1.758032        4.742669        0.391732
  H            4.445731        4.965462        1.403738
  H            1.168717        8.925460       -2.814712
  H            0.706518        8.299424       -4.409791
  H            2.289208        9.062050       -4.180621
  H            6.675045        5.232934       -1.637601
  H            6.540253        6.059371       -0.064264
  H            6.698043        4.278124       -0.132248
