          40
  Built with Packmol                                             
  S           -0.004372       -0.782196        1.491805
  S           -0.004362       -0.782291       -1.491995
  F            1.222456        1.245943        2.541413
  F           -0.246716        0.283191        3.835006
  F           -0.910352        1.545772        2.184506
  F           -0.250190        0.283905       -3.834394
  F            1.223474        1.243752       -2.543987
  F           -0.907937        1.547380       -2.182294
  O           -1.363956       -1.283441        1.459000
  O            1.106755       -1.634760        1.864608
  O            1.106668       -1.634953       -1.864592
  O           -1.363946       -1.283436       -1.459000
  N            0.359407       -0.005181        0.000008
  C            0.016477        0.628103        2.551308
  C            0.016595        0.628212       -2.551392
  N            6.672603       -2.583541       -2.700966
  N            5.458830       -1.181992       -1.619624
  C            7.789721       -3.154183       -3.447161
  C            7.647535       -2.966507       -4.956011
  C            7.574084       -1.494621       -5.364045
  C            6.629412       -1.333835       -2.247362
  C            5.525461       -3.248837       -2.367765
  C            4.751017       -2.358331       -1.679306
  C            7.447699       -1.342041       -6.871917
  C            5.014333        0.037392       -0.978224
  H            8.713905       -2.684381       -3.089932
  H            7.859111       -4.221766       -3.208398
  H            6.742107       -3.481671       -5.299304
  H            8.499270       -3.444861       -5.453825
  H            6.706942       -1.011179       -4.902704
  H            8.469576       -0.965547       -5.018753
  H            7.394916       -0.581684       -2.358489
  H            5.414978       -4.272413       -2.669707
  H            3.783256       -2.394770       -1.217309
  H            6.541511       -1.832444       -7.241556
  H            8.309818       -1.781163       -7.383982
  H            7.395407       -0.282944       -7.142698
  H            5.765227        0.822326       -1.102372
  H            4.075283        0.363223       -1.433836
  H            4.863487       -0.151228        0.088147
