          40
  Built with Packmol                                             
  S           -0.004372       -0.782196        1.491805
  S           -0.004362       -0.782291       -1.491995
  F            1.222456        1.245943        2.541413
  F           -0.246716        0.283191        3.835006
  F           -0.910352        1.545772        2.184506
  F           -0.250190        0.283905       -3.834394
  F            1.223474        1.243752       -2.543987
  F           -0.907937        1.547380       -2.182294
  O           -1.363956       -1.283441        1.459000
  O            1.106755       -1.634760        1.864608
  O            1.106668       -1.634953       -1.864592
  O           -1.363946       -1.283436       -1.459000
  N            0.359407       -0.005181        0.000008
  C            0.016477        0.628103        2.551308
  C            0.016595        0.628212       -2.551392
  N           -6.156798        0.114668        4.507226
  N           -6.627825        1.374066        2.834225
  C           -5.472171       -0.858138        5.352996
  C           -5.973721       -2.284070        5.135656
  C           -5.781754       -2.765103        3.696876
  C           -5.754774        0.469976        3.290049
  C           -7.296600        0.789692        4.846003
  C           -7.598499        1.592094        3.782166
  C           -6.277276       -4.191719        3.517557
  C           -6.553556        2.019053        1.540260
  H           -4.397634       -0.795822        5.143407
  H           -5.612286       -0.568493        6.400865
  H           -7.038509       -2.334650        5.393937
  H           -5.443030       -2.954245        5.822189
  H           -6.335525       -2.126246        3.001399
  H           -4.722098       -2.710978        3.422554
  H           -4.885328        0.103689        2.766622
  H           -7.741846        0.604426        5.804395
  H           -8.377073        2.296724        3.561599
  H           -7.343784       -4.269240        3.751775
  H           -5.730961       -4.881249        4.168998
  H           -6.132316       -4.516066        2.482410
  H           -5.692950        1.641732        0.981368
  H           -7.467511        1.807506        0.978567
  H           -6.446260        3.097944        1.681545
