          40
  Built with Packmol                                             
  S           -0.004372       -0.782196        1.491805
  S           -0.004362       -0.782291       -1.491995
  F            1.222456        1.245943        2.541413
  F           -0.246716        0.283191        3.835006
  F           -0.910352        1.545772        2.184506
  F           -0.250190        0.283905       -3.834394
  F            1.223474        1.243752       -2.543987
  F           -0.907937        1.547380       -2.182294
  O           -1.363956       -1.283441        1.459000
  O            1.106755       -1.634760        1.864608
  O            1.106668       -1.634953       -1.864592
  O           -1.363946       -1.283436       -1.459000
  N            0.359407       -0.005181        0.000008
  C            0.016477        0.628103        2.551308
  C            0.016595        0.628212       -2.551392
  N            0.399986        1.953015       -8.566217
  N            0.310794        3.689516       -7.307848
  C            0.721021        1.076612       -9.688379
  C           -0.319353        1.143112      -10.804295
  C           -0.466105        2.546998      -11.392429
  C            0.795206        3.218813       -8.461606
  C           -0.345230        1.597333       -7.476392
  C           -0.403505        2.701522       -6.673827
  C           -1.497726        2.576021      -12.509499
  C            0.513281        5.034125       -6.810965
  H            1.708896        1.360076      -10.070728
  H            0.803717        0.049157       -9.315480
  H           -1.289195        0.812821      -10.412687
  H           -0.034601        0.439889      -11.595804
  H           -0.785125        3.255044      -10.620818
  H            0.498958        2.893198      -11.779535
  H            1.397731        3.765874       -9.169959
  H           -0.736897        0.600038       -7.420862
  H           -0.858358        2.928042       -5.728772
  H           -2.481973        2.267339      -12.143059
  H           -1.209549        1.907125      -13.326702
  H           -1.588485        3.588292      -12.915473
  H            1.100102        5.614977       -7.527644
  H           -0.457729        5.515905       -6.667469
  H            1.049393        4.989133       -5.859104
