          40
  Built with Packmol                                             
  S           -0.004372       -0.782196        1.491805
  S           -0.004362       -0.782291       -1.491995
  F            1.222456        1.245943        2.541413
  F           -0.246716        0.283191        3.835006
  F           -0.910352        1.545772        2.184506
  F           -0.250190        0.283905       -3.834394
  F            1.223474        1.243752       -2.543987
  F           -0.907937        1.547380       -2.182294
  O           -1.363956       -1.283441        1.459000
  O            1.106755       -1.634760        1.864608
  O            1.106668       -1.634953       -1.864592
  O           -1.363946       -1.283436       -1.459000
  N            0.359407       -0.005181        0.000008
  C            0.016477        0.628103        2.551308
  C            0.016595        0.628212       -2.551392
  N            3.439138       -0.363326       -8.487081
  N            2.712334        1.578703       -9.041305
  C            3.561416       -1.649008       -7.807037
  C            4.451997       -1.578090       -6.568527
  C            3.930384       -0.593470       -5.521257
  C            2.501605        0.542613       -8.223085
  C            4.264406        0.084185       -9.481185
  C            3.803635        1.320656       -9.835542
  C            4.830604       -0.557389       -4.296009
  C            1.908978        2.782500       -9.078160
  H            2.554785       -1.987455       -7.533927
  H            3.965046       -2.381160       -8.515974
  H            5.464388       -1.282099       -6.869352
  H            4.526069       -2.579469       -6.128245
  H            3.884426        0.418879       -5.935410
  H            2.914843       -0.872674       -5.218315
  H            1.713944        0.459415       -7.490456
  H            5.074192       -0.542143       -9.802190
  H            4.101489        2.064160      -10.549556
  H            5.845724       -0.247236       -4.563670
  H            4.885709       -1.542046       -3.820929
  H            4.441160        0.153082       -3.560272
  H            1.119544        2.730457       -8.323532
  H            2.545495        3.647591       -8.873154
  H            1.455066        2.882097      -10.067868
