40

S 1.327754 1.564516 3.538059
S -1.551655 1.900929 3.532667
F 2.879770 0.494443 5.304578
F 0.836744 0.875084 6.076108
F 2.273419 2.570680 5.862053
F -3.591435 2.646703 5.155294
F -1.926098 3.996846 4.991991
F -1.778081 2.332162 6.248780
O 0.978269 0.245387 2.988641
O 2.376353 2.282486 2.794245
O -2.228480 2.328950 2.317428
O -1.593853 0.480432 3.872237
N 0.041981 2.515683 3.510296
C 1.822154 1.355866 5.304930
C -2.285898 2.708555 5.087121
N 1.386326 0.000000 -0.000000
N 0.692911 2.072211 -0.047094
C 2.311866 -1.129387 -0.157359
C 2.072168 -1.943338 -1.443488
C 2.630117 -1.211710 -2.711207
C 1.840620 1.303156 0.000000
C 0.000000 0.000000 0.000000
C -0.420031 1.314744 -0.233925
C 2.162406 -2.027131 -3.951423
C 0.749607 3.474992 0.168292
H 3.344307 -0.753017 -0.121142
H 2.238074 -1.740193 0.750369
H 1.041025 -2.249332 -1.621287
H 2.730238 -2.794240 -1.240978
H 2.407226 -0.135125 -2.790485
H 3.707353 -1.356498 -2.639100
H 2.801433 1.577266 0.415575
H -0.628640 -0.865907 0.150055
H -1.408399 1.770952 -0.235885
H 1.135014 -1.781237 -4.247568
H 2.425692 -3.087563 -3.849620
H 2.805761 -1.635215 -4.755783
H 0.379204 3.663282 1.185861
H 1.760841 3.894897 0.113652
H 0.049700 3.997848 -0.496427
