40

S 3.384783 1.503737 3.725656
S 0.615664 1.041451 4.114078
F 2.863068 3.052183 5.863115
F 4.859214 3.288731 4.981384
F 4.403952 1.534390 6.238057
F 0.725014 0.670256 6.791849
F 0.101685 -1.151406 5.621461
F -1.234845 0.533153 5.969381
O 4.555073 0.716400 3.354143
O 2.956174 2.575703 2.837409
O 0.577339 2.514222 4.299485
O -0.104216 0.391761 3.035665
N 2.158377 0.514197 4.040991
C 3.918594 2.395025 5.266031
C 0.024191 0.231601 5.712484
N 1.422041 0.000000 0.000000
N 0.698573 2.066996 0.128155
C 2.261890 -1.129960 0.150807
C 2.327500 -1.640271 1.576247
C 2.841409 -3.051441 1.772711
C 1.846923 1.304061 0.000000
C 0.000000 0.000000 0.000000
C -0.424882 1.284468 -0.030268
C 2.900339 -3.403754 3.319773
C 0.674031 3.465724 0.562615
H 1.805715 -1.846245 -0.537190
H 3.307430 -0.921789 -0.104949
H 1.287094 -1.786161 1.875531
H 2.895276 -0.899537 2.144880
H 2.119841 -3.755026 1.318391
H 3.826402 -3.126902 1.295851
H 2.851887 1.670308 0.150034
H -0.567283 -0.921561 0.112763
H -1.411914 1.750760 -0.036573
H 3.655310 -2.858514 3.900231
H 3.162919 -4.456363 3.494607
H 1.901211 -3.210273 3.730516
H 1.151092 3.431834 1.549613
H 1.249542 4.101489 -0.134659
H -0.326784 3.846787 0.820026
