40

S 2.713721 1.195944 4.034258
S 0.004056 1.071863 3.862446
F 3.433510 1.509939 6.689783
F 2.224817 3.138935 5.922818
F 4.260562 3.077322 5.295725
F -1.179115 -0.389216 5.737107
F -2.177619 1.423621 5.226507
F -0.405974 1.514293 6.503399
O 3.786902 0.231243 3.979183
O 2.563316 2.053373 2.816394
O 0.140126 2.496480 3.562858
O -0.556659 0.141766 2.891355
N 1.416715 0.349584 4.396682
C 3.185423 2.286008 5.534677
C -0.968926 0.889571 5.405261
N 1.430140 0.000000 -0.000000
N 0.769365 2.076075 0.219294
C 2.312012 -1.160615 0.177127
C 1.815697 -2.016262 1.361079
C 2.591705 -3.375424 1.600432
C 1.822060 1.325179 0.000000
C 0.000000 0.000000 0.000000
C -0.387025 1.318451 0.302158
C 4.093096 -3.086878 1.981830
C 0.738879 3.524444 0.443341
H 2.411233 -1.785578 -0.712860
H 3.326038 -0.777435 0.365601
H 0.727971 -2.126812 1.274296
H 1.905478 -1.372867 2.239306
H 2.164544 -3.981596 2.407580
H 2.540800 -3.971004 0.682176
H 2.803852 1.754341 0.142142
H -0.562393 -0.904698 -0.150450
H -1.371824 1.748553 0.404058
H 4.538507 -4.082642 2.069369
H 4.215392 -2.539955 2.933785
H 4.608570 -2.498145 1.214640
H 1.500832 3.841741 1.162681
H 0.954732 3.951634 -0.545505
H -0.228999 3.890833 0.785354
