157857
  -OEChem-04142523093D

 16 15  0     0  0  0  0  0  0999 V2000
   -1.4918   -0.7822    0.0044 S   0  0  0  0  0  0  0  0  0  0  0  0
    1.4920   -0.7823    0.0044 S   0  0  0  0  0  0  0  0  0  0  0  0
   -2.5414    1.2459   -1.2225 F   0  0  0  0  0  0  0  0  0  0  0  0
   -3.8350    0.2832    0.2467 F   0  0  0  0  0  0  0  0  0  0  0  0
   -2.1845    1.5458    0.9103 F   0  0  0  0  0  0  0  0  0  0  0  0
    3.8344    0.2839    0.2502 F   0  0  0  0  0  0  0  0  0  0  0  0
    2.5440    1.2437   -1.2235 F   0  0  0  0  0  0  0  0  0  0  0  0
    2.1823    1.5474    0.9079 F   0  0  0  0  0  0  0  0  0  0  0  0
   -1.4590   -1.2834    1.3640 O   0  0  0  0  0  0  0  0  0  0  0  0
   -1.8646   -1.6348   -1.1067 O   0  0  0  0  0  0  0  0  0  0  0  0
    1.8646   -1.6350   -1.1066 O   0  0  0  0  0  0  0  0  0  0  0  0
    1.4590   -1.2834    1.3640 O   0  0  0  0  0  0  0  0  0  0  0  0
    0.0000   -0.0052   -0.3594 N   0  0  0  0  0  0  0  0  0  0  0  0
   -2.5513    0.6281   -0.0165 C   0  0  0  0  0  0  0  0  0  0  0  0
    2.5514    0.6282   -0.0166 C   0  0  0  0  0  0  0  0  0  0  0  0
    0.0000    0.4984   -1.2569 H   0  0  0  0  0  0  0  0  0  0  0  0
  1  9  2  0  0  0  0
  1 10  2  0  0  0  0
  1 13  1  0  0  0  0
  1 14  1  0  0  0  0
  2 11  2  0  0  0  0
  2 12  2  0  0  0  0
  2 13  1  0  0  0  0
  2 15  1  0  0  0  0
  3 14  1  0  0  0  0
  4 14  1  0  0  0  0
  5 14  1  0  0  0  0
  6 15  1  0  0  0  0
  7 15  1  0  0  0  0
  8 15  1  0  0  0  0
 13 16  1  0  0  0  0
M  END