40

S -0.698665 1.044227 3.828845
S 2.086868 1.224691 4.123532
F -0.877109 1.371070 6.438334
F -2.774269 1.476856 5.262198
F -1.873276 -0.506512 5.750120
F 3.135863 -1.048063 5.120325
F 4.172168 0.707829 5.864042
F 2.210061 0.150485 6.669961
O -1.430836 0.224832 2.860902
O -0.637353 2.487318 3.604502
O 1.995329 2.605344 4.618728
O 2.719374 0.999323 2.793665
N 0.712353 0.384622 4.021594
C -1.597233 0.776150 5.404317
C 2.917424 0.201857 5.496335
N 1.402676 -0.000000 -0.000000
N 0.617890 2.083006 0.014043
C 2.273868 -1.118182 -0.072762
C 3.254993 -1.039035 -1.289779
C 3.787903 -2.434323 -1.687621
C 1.767550 1.321767 0.000000
C 0.000000 0.000000 -0.000000
C -0.483433 1.322164 -0.097339
C 2.757301 -3.397852 -2.247686
C 0.448215 3.484169 0.199927
H 1.630384 -1.999055 -0.018084
H 2.808703 -1.127296 0.889771
H 2.791379 -0.529898 -2.128195
H 4.070291 -0.334736 -1.106336
H 4.319743 -2.716109 -0.780239
H 4.459761 -2.203680 -2.532612
H 2.699055 1.795162 0.252577
H -0.465895 -0.969844 0.104139
H -1.464843 1.776776 -0.001617
H 3.328709 -4.186866 -2.756656
H 2.168355 -4.003715 -1.548420
H 2.059920 -2.914668 -2.950532
H -0.052828 3.960363 -0.642211
H 1.431193 3.954174 0.314160
H -0.049049 3.636494 1.165549
40

S 5.307348 0.952179 2.930735
S 2.519657 1.267782 3.507429
F 6.461616 0.185239 5.088713
F 4.900412 -1.112827 4.370684
F 6.868050 -1.081607 3.367227
F 0.526510 0.948522 5.249047
F 2.638943 0.499446 6.046076
F 1.867179 2.573157 5.745903
O 6.433663 1.855071 2.842409
O 4.810588 0.296986 1.752410
O 2.333040 -0.156612 3.087814
O 1.885503 2.297160 2.716714
N 4.111689 1.693910 3.705291
C 5.918795 -0.346043 3.987358
C 1.851442 1.331326 5.286656
N 1.391618 0.000000 -0.000000
N 0.744026 2.131234 0.025822
C 2.203694 -1.235933 -0.168232
C 2.560976 -1.645741 -1.633260
C 3.363639 -2.941645 -1.893767
C 1.800063 1.336552 0.000000
C 0.000000 0.000000 -0.000000
C -0.404565 1.332864 -0.047960
C 2.645338 -4.335989 -1.626279
C 0.759045 3.638744 0.055634
H 1.684514 -2.008625 0.399923
H 3.158770 -1.098936 0.359464
H 1.558618 -1.903263 -1.996522
H 3.003986 -0.916960 -2.330913
H 4.273515 -2.873736 -1.301388
H 3.815487 -2.925900 -2.890755
H 2.820602 1.669323 0.134774
H -0.569769 -0.926474 0.017616
H -1.347137 1.860632 -0.013044
H 2.571971 -4.568403 -0.560680
H 1.666909 -4.426943 -2.105656
H 3.314344 -5.108613 -2.025758
H 1.751271 4.001565 -0.234792
H 0.703713 3.885199 1.128946
H -0.092051 4.133170 -0.412958
40

S 3.897129 1.822611 2.790677
S 1.767645 0.265229 3.934906
F 5.161944 0.978365 4.923021
F 6.034461 2.710473 4.060051
F 4.169318 2.856785 5.264681
F 0.064735 -0.145993 5.880977
F 1.508633 1.492763 6.372337
F -0.043133 1.863913 4.878460
O 4.042152 2.960100 1.918675
O 4.300732 0.536982 2.241530
O 2.764087 -0.642475 4.492020
O 0.798565 -0.263687 3.027253
N 2.417154 1.699420 3.346915
C 4.891339 2.121577 4.346012
C 0.780131 0.924406 5.335585
N 1.388740 0.000000 -0.000000
N 0.716189 2.104403 0.283485
C 2.230582 -1.221166 0.032481
C 3.211975 -1.181589 -1.095793
C 4.063682 -2.437525 -1.185351
C 1.831156 1.342114 -0.000000
C 0.000000 0.000000 -0.000000
C -0.414836 1.395135 0.123727
C 5.145958 -2.323388 -2.239036
C 0.822832 3.501244 0.563596
H 1.521091 -2.058957 0.078616
H 2.828678 -1.195242 0.948565
H 2.660972 -1.057478 -2.031149
H 3.909154 -0.342795 -0.935900
H 3.440024 -3.292433 -1.467454
H 4.555279 -2.691147 -0.235926
H 2.837607 1.723922 -0.068392
H -0.675072 -0.817992 -0.187795
H -1.399902 1.798982 0.300233
H 4.750492 -1.882918 -3.159359
H 5.974911 -1.696572 -1.881911
H 5.697177 -3.261735 -2.344219
H 0.236545 3.612547 1.486623
H 0.485260 4.184902 -0.226314
H 1.848150 3.863422 0.699798
40

S -1.316259 1.398379 3.694117
S 1.110322 0.202491 4.336114
F -1.666596 2.348331 6.092815
F -3.188217 0.910318 5.576979
F -3.196762 2.861067 4.715465
F 1.203166 -2.211094 3.393944
F 0.587078 -2.073973 5.598265
F 2.680340 -1.901539 4.969359
O -0.426881 2.512154 3.354245
O -2.254248 0.921382 2.646095
O 1.606710 0.561601 2.986618
O 1.568079 0.974833 5.502239
N -0.509026 0.105041 4.218573
C -2.394340 1.897110 5.090973
C 1.448021 -1.547628 4.632999
N 1.392659 0.000000 -0.000000
N 0.634254 2.072649 0.178173
C 2.322032 -1.169645 0.107225
C 2.213678 -2.222297 -1.107305
C 3.209974 -3.386011 -1.115346
C 1.776816 1.347525 0.000000
C 0.000000 0.000000 0.000000
C -0.461348 1.308347 0.263604
C 3.068590 -4.361790 -2.263547
C 0.535379 3.523074 0.303836
H 3.357461 -0.791297 0.095401
H 2.168657 -1.652070 1.076937
H 2.272271 -1.691404 -2.068824
H 1.182270 -2.588507 -1.023117
H 4.215963 -2.958826 -1.085359
H 3.187283 -3.909403 -0.161225
H 2.793504 1.719341 0.066317
H -0.610487 -0.887833 0.057082
H -1.467480 1.710650 0.316985
H 2.065114 -4.769432 -2.099339
H 3.764094 -5.205621 -2.163426
H 3.284579 -3.895731 -3.229848
H -0.450936 3.729749 0.755133
H 1.329471 3.830708 0.981979
H 0.564890 4.046599 -0.657596
40

S 1.327754 1.564516 3.538059
S -1.551655 1.900929 3.532667
F 2.879770 0.494443 5.304578
F 0.836744 0.875084 6.076108
F 2.273419 2.570680 5.862053
F -3.591435 2.646703 5.155294
F -1.926098 3.996846 4.991991
F -1.778081 2.332162 6.248780
O 0.978269 0.245387 2.988641
O 2.376353 2.282486 2.794245
O -2.228480 2.328950 2.317428
O -1.593853 0.480432 3.872237
N 0.041981 2.515683 3.510296
C 1.822154 1.355866 5.304930
C -2.285898 2.708555 5.087121
N 1.386326 0.000000 -0.000000
N 0.692911 2.072211 -0.047094
C 2.311866 -1.129387 -0.157359
C 2.072168 -1.943338 -1.443488
C 2.630117 -1.211710 -2.711207
C 1.840620 1.303156 0.000000
C 0.000000 0.000000 0.000000
C -0.420031 1.314744 -0.233925
C 2.162406 -2.027131 -3.951423
C 0.749607 3.474992 0.168292
H 3.344307 -0.753017 -0.121142
H 2.238074 -1.740193 0.750369
H 1.041025 -2.249332 -1.621287
H 2.730238 -2.794240 -1.240978
H 2.407226 -0.135125 -2.790485
H 3.707353 -1.356498 -2.639100
H 2.801433 1.577266 0.415575
H -0.628640 -0.865907 0.150055
H -1.408399 1.770952 -0.235885
H 1.135014 -1.781237 -4.247568
H 2.425692 -3.087563 -3.849620
H 2.805761 -1.635215 -4.755783
H 0.379204 3.663282 1.185861
H 1.760841 3.894897 0.113652
H 0.049700 3.997848 -0.496427
40

S 0.309316 0.364534 3.519849
S 3.077511 0.706356 3.668363
F 0.290634 -0.502690 6.028369
F 0.216942 1.701687 5.894989
F -1.471715 0.464619 5.373740
F 4.464365 -1.596394 3.858558
F 5.424437 0.076905 4.864953
F 3.508430 -0.793862 5.607166
O -0.689567 -0.567262 2.953644
O 0.230177 1.784664 3.038008
O 2.768884 1.822533 4.572686
O 3.637547 0.982800 2.360182
N 1.724848 -0.221248 3.332424
C -0.127325 0.514661 5.282576
C 4.185105 -0.435977 4.579631
N 1.450621 0.000000 -0.000000
N 0.857702 2.082371 0.138132
C 2.241317 -1.235519 0.009607
C 1.387406 -2.452766 -0.557532
C 1.008051 -2.440306 -2.113821
C 1.961850 1.279080 -0.000000
C 0.000000 0.000000 -0.000000
C -0.321242 1.323630 -0.002598
C 0.131530 -3.677208 -2.431756
C 0.907749 3.543354 0.263120
H 2.524023 -1.393154 1.061333
H 3.217106 -1.070910 -0.445848
H 1.964332 -3.376431 -0.451233
H 0.504267 -2.691307 0.043353
H 1.888089 -2.439994 -2.765077
H 0.472281 -1.518314 -2.387462
H 2.979070 1.605617 0.169815
H -0.625112 -0.887845 0.012900
H -1.269112 1.834528 0.049607
H -0.181233 -3.728579 -3.479821
H 0.726792 -4.538934 -2.135123
H -0.809585 -3.697047 -1.867035
H 1.358384 3.813566 1.224585
H -0.124292 3.927310 0.243904
H 1.521625 3.973014 -0.542143
40

S 1.517822 0.728658 3.512175
S 3.493283 2.659211 3.152424
F 2.637336 0.081173 5.868115
F 1.220876 1.746404 5.920518
F 0.497578 -0.266629 5.835428
F 5.412296 1.611050 4.572863
F 5.823219 1.523906 2.505679
F 5.985066 3.422351 3.555208
O 1.222534 -0.586036 3.010394
O 0.592955 1.860930 3.273048
O 2.953099 3.457413 4.319503
O 3.260354 3.245013 1.838962
N 2.990442 1.126851 3.094764
C 1.450200 0.515505 5.370156
C 5.258380 2.313801 3.447763
N 1.387119 0.000000 -0.000000
N 0.607878 2.121809 0.061721
C 2.337074 -1.193894 -0.034685
C 3.530771 -0.886398 -0.930193
C 3.171248 -0.495002 -2.369273
C 1.741018 1.369290 -0.000000
C 0.000000 0.000000 -0.000000
C -0.474869 1.309113 0.030372
C 4.393854 -0.362728 -3.277480
C 0.488566 3.588791 0.140637
H 1.747939 -1.985404 -0.518248
H 2.668912 -1.442737 0.980825
H 4.142542 -0.096649 -0.481046
H 4.224871 -1.728981 -0.843143
H 2.677347 0.480387 -2.360496
H 2.482195 -1.224244 -2.805519
H 2.761695 1.663664 0.214624
H -0.527929 -0.947328 -0.060510
H -1.478460 1.721786 -0.002891
H 5.042753 0.492865 -3.077503
H 5.058541 -1.234736 -3.182120
H 4.137496 -0.335835 -4.342401
H -0.127891 3.985029 -0.674456
H 1.499222 4.024733 0.135128
H 0.035758 3.816317 1.112540
