40

S 5.307348 0.952179 2.930735
S 2.519657 1.267782 3.507429
F 6.461616 0.185239 5.088713
F 4.900412 -1.112827 4.370684
F 6.868050 -1.081607 3.367227
F 0.526510 0.948522 5.249047
F 2.638943 0.499446 6.046076
F 1.867179 2.573157 5.745903
O 6.433663 1.855071 2.842409
O 4.810588 0.296986 1.752410
O 2.333040 -0.156612 3.087814
O 1.885503 2.297160 2.716714
N 4.111689 1.693910 3.705291
C 5.918795 -0.346043 3.987358
C 1.851442 1.331326 5.286656
N 1.391618 0.000000 -0.000000
N 0.744026 2.131234 0.025822
C 2.203694 -1.235933 -0.168232
C 2.560976 -1.645741 -1.633260
C 3.363639 -2.941645 -1.893767
C 1.800063 1.336552 0.000000
C 0.000000 0.000000 -0.000000
C -0.404565 1.332864 -0.047960
C 2.645338 -4.335989 -1.626279
C 0.759045 3.638744 0.055634
H 1.684514 -2.008625 0.399923
H 3.158770 -1.098936 0.359464
H 1.558618 -1.903263 -1.996522
H 3.003986 -0.916960 -2.330913
H 4.273515 -2.873736 -1.301388
H 3.815487 -2.925900 -2.890755
H 2.820602 1.669323 0.134774
H -0.569769 -0.926474 0.017616
H -1.347137 1.860632 -0.013044
H 2.571971 -4.568403 -0.560680
H 1.666909 -4.426943 -2.105656
H 3.314344 -5.108613 -2.025758
H 1.751271 4.001565 -0.234792
H 0.703713 3.885199 1.128946
H -0.092051 4.133170 -0.412958
