40

S 0.536943 1.826803 3.511322
S 3.199331 2.175620 3.944586
F -0.278455 2.352034 6.138118
F 0.730881 0.384740 5.829261
F -1.295018 0.842900 5.048480
F 3.065793 3.142835 6.355470
F 3.638804 4.549051 4.782315
F 5.139783 3.300935 5.722565
O -0.550326 2.621482 2.881297
O 0.899342 0.526985 2.912039
O 3.160472 0.803904 4.487065
O 4.132093 2.453857 2.827877
N 1.762473 2.800101 3.662871
C -0.062547 1.344222 5.267775
C 3.778139 3.311960 5.261368
N 1.397355 0.000000 0.000000
N 0.793857 2.055728 0.123183
C 2.316520 -1.127091 0.000864
C 2.379568 -1.743598 1.377833
C 3.351905 -2.928667 1.586330
C 1.861732 1.262400 0.000000
C 0.000000 0.000000 0.000000
C -0.334775 1.310886 0.001944
C 3.017702 -4.173521 0.803676
C 0.814754 3.523247 0.146653
H 1.997632 -1.833139 -0.774446
H 3.309897 -0.771817 -0.290138
H 1.375671 -2.089378 1.634206
H 2.578300 -1.047849 2.192597
H 4.270140 -2.507016 1.157314
H 3.473850 -3.094564 2.664665
H 2.891034 1.607152 0.079266
H -0.553546 -0.908385 0.193450
H -1.332804 1.717541 0.107632
H 2.094815 -4.638059 1.161705
H 3.959267 -4.728370 0.781358
H 2.831851 -3.878365 -0.242910
H -0.185923 3.950839 0.287763
H 1.572257 3.882113 0.846585
H 1.163914 3.977982 -0.787693
