40
Coordinates from ORCA-job complex
  N          -8.60836934763956     -8.90168881085850     -0.60573325915268
  N         -10.58304247892825     -9.76872589671306     -0.37397562977519
  C          -7.25823058702899     -8.62065991911039     -1.13043132646435
  C          -6.17257060229504     -9.35204555465246     -0.34717728405040
  C          -6.27703554388918    -10.87529260359899     -0.40436623331650
  C          -9.50600567614939     -9.71357711023794     -1.15904982682122
  C          -9.12510141598713     -8.42382313380214      0.57773135681628
  C         -10.36231808635231     -8.96438800634937      0.72262580157845
  C          -5.12719347698414    -11.56359709978546      0.32759082204039
  C         -11.79419770249824    -10.54889528334524     -0.63420652585377
  H          -7.25875462631413     -8.92171261612650     -2.17802745914439
  H          -7.11924428469834     -7.54056058115155     -1.09444855140347
  H          -6.17882370797582     -9.01178625495740      0.69273862791288
  H          -5.21525787286378     -9.03047155005843     -0.76593226864818
  H          -7.22739215548609    -11.19926756969575      0.03434110899143
  H          -6.29047125019062    -11.19585499938785     -1.45202362612741
  H          -9.38166610905372    -10.24082723822509     -2.08874304144717
  H          -8.58125718929231     -7.74416351897744      1.20911634416760
  H         -11.09554352174867     -8.84132186161706      1.49982288264376
  H          -5.10952569376026    -11.28643258208428      1.38375271545831
  H          -4.16440616694100    -11.28633367176632     -0.10580065719494
  H          -5.21888384738461    -12.64844119299839      0.26934320283670
  H         -11.67408937250135    -11.08407677213633     -1.57232311736530
  H         -11.94723428590442    -11.26272928383635      0.17299533720100
  H         -12.64995608253838     -9.88018691107379     -0.70508307515051
  O          11.41894270527217      4.68846335297236      2.17561840397483
  F           9.28030799162381      6.84485508636963      1.72795303463631
  O           8.49021085310387      3.96022708487646      1.49647651865496
  F          13.78686259652742      5.88212359588296      0.79620544369446
  F           7.26122733073278      6.66425471717263      0.95698439570369
  S          11.60557536190452      4.39945479806948      0.77760930731664
  C           8.56031789273581      6.44984696887845      0.67378721843335
  F          11.98783777512708      7.00414104767091      0.33648406765200
  C          12.61314384438615      5.83515527475277      0.14011524785328
  O          12.38989520793275      3.25131700292455      0.40528410314242
  S           8.82906472733256      4.64287183298312      0.27576699715721
  N          10.33947305736756      4.55242745324688     -0.15943386752705
  F           8.88460694553599      7.22954202898739     -0.36913259321466
  F          12.87956091086467      5.72076679984376     -1.16764976786262
  O           8.00266519635883      4.44815775541541     -0.88664459874616
