40

S -1167.341656 112.998133 661.900972
S -1166.691723 112.320557 664.557262
F -1169.802762 112.152350 661.755006
F -1169.146700 113.303906 660.037449
F -1169.742109 114.349432 661.805516
F -1165.385728 114.413471 665.760669
F -1165.593914 112.602807 667.057533
F -1167.308656 113.870576 666.703383
O -1166.644113 114.094323 661.197621
O -1166.950014 111.614495 661.748782
O -1167.831083 111.485403 665.020701
O -1165.425070 111.702028 664.094647
N -1167.298465 113.402476 663.465146
C -1169.118690 113.218703 661.344107
C -1166.197164 113.339149 666.083166
N 1.403068 0.000000 0.000000
N 0.701890 2.066863 0.022992
C 2.229329 -1.169261 -0.014899
C 2.220776 -1.807322 1.380703
C 2.944191 -3.167995 1.535757
C 1.832057 1.287699 0.000000
C 0.000000 0.000000 0.000000
C -0.429274 1.318906 0.017678
C 4.460867 -3.157229 1.279482
C 0.672170 3.520812 0.103284
H 1.828564 -1.876784 -0.743596
H 3.237619 -0.871400 -0.321378
H 1.182908 -2.026136 1.655929
H 2.637149 -1.114862 2.130124
H 2.769716 -3.552520 2.545757
H 2.475147 -3.889037 0.853485
H 2.861515 1.595282 0.104443
H -0.573030 -0.911996 -0.014123
H -1.416895 1.774274 -0.007683
H 4.873178 -4.160395 1.436507
H 4.922427 -2.429888 1.971968
H 4.688083 -2.891928 0.234786
H 0.151240 3.929893 -0.765615
H 0.131640 3.815199 1.013868
H 1.704408 3.895808 0.138823
