40

S 3.294323 1.918181 2.959141
S 0.532318 1.828291 3.731245
F 5.172768 3.547565 3.954005
F 3.356641 3.923781 4.897745
F 4.420923 2.135795 5.525289
F 1.283951 2.124475 6.205053
F -0.896591 2.124516 5.841546
F 0.329928 0.227027 5.943459
O 3.022181 2.903976 1.906502
O 4.239919 0.898158 2.534522
O -0.403363 1.028286 2.930874
O 0.612197 3.273585 3.464889
N 2.031263 1.113691 3.550389
C 4.097793 2.881348 4.455786
C 0.258617 1.533390 5.545803
N 1.412126 0.000000 -0.000000
N 0.711834 2.096818 0.039339
C 2.207664 -1.222765 0.130249
C 2.079559 -1.944543 1.460372
C 2.880196 -3.259627 1.396067
C 1.833972 1.314475 -0.000000
C 0.000000 0.000000 -0.000000
C -0.435938 1.316874 0.116189
C 2.873539 -4.159980 2.649630
C 0.832079 3.593061 -0.007529
H 3.245319 -0.872535 0.038541
H 2.014905 -1.851674 -0.746231
H 2.523429 -1.435325 2.322100
H 1.067114 -2.290007 1.698510
H 3.925924 -2.976500 1.186325
H 2.629794 -3.898793 0.543503
H 2.853640 1.656632 -0.088349
H -0.567726 -0.922274 0.042398
H -1.437336 1.718583 0.065863
H 1.860457 -4.568535 2.792273
H 3.549683 -5.004825 2.453502
H 3.246098 -3.497330 3.438740
H 0.555829 3.957492 0.996551
H 0.264495 4.044369 -0.830736
H 1.857058 3.803956 -0.323346
40

S 3.384783 1.503737 3.725656
S 0.615664 1.041451 4.114078
F 2.863068 3.052183 5.863115
F 4.859214 3.288731 4.981384
F 4.403952 1.534390 6.238057
F 0.725014 0.670256 6.791849
F 0.101685 -1.151406 5.621461
F -1.234845 0.533153 5.969381
O 4.555073 0.716400 3.354143
O 2.956174 2.575703 2.837409
O 0.577339 2.514222 4.299485
O -0.104216 0.391761 3.035665
N 2.158377 0.514197 4.040991
C 3.918594 2.395025 5.266031
C 0.024191 0.231601 5.712484
N 1.422041 0.000000 0.000000
N 0.698573 2.066996 0.128155
C 2.261890 -1.129960 0.150807
C 2.327500 -1.640271 1.576247
C 2.841409 -3.051441 1.772711
C 1.846923 1.304061 0.000000
C 0.000000 0.000000 0.000000
C -0.424882 1.284468 -0.030268
C 2.900339 -3.403754 3.319773
C 0.674031 3.465724 0.562615
H 1.805715 -1.846245 -0.537190
H 3.307430 -0.921789 -0.104949
H 1.287094 -1.786161 1.875531
H 2.895276 -0.899537 2.144880
H 2.119841 -3.755026 1.318391
H 3.826402 -3.126902 1.295851
H 2.851887 1.670308 0.150034
H -0.567283 -0.921561 0.112763
H -1.411914 1.750760 -0.036573
H 3.655310 -2.858514 3.900231
H 3.162919 -4.456363 3.494607
H 1.901211 -3.210273 3.730516
H 1.151092 3.431834 1.549613
H 1.249542 4.101489 -0.134659
H -0.326784 3.846787 0.820026
40

S 2.182238 1.530788 3.816101
S 3.973969 3.313800 2.460163
F 2.058153 3.542976 5.571806
F 3.196778 1.893529 6.335650
F 0.934173 1.733740 6.184696
F 5.292517 4.262519 4.616795
F 5.788930 5.233052 2.803224
F 6.539644 3.267686 3.198528
O 1.097143 2.110098 2.966001
O 2.165573 0.099011 4.090940
O 4.431929 2.886921 1.149344
O 2.843857 4.267468 2.519859
N 3.680710 1.969836 3.354344
C 2.078425 2.204273 5.526376
C 5.437740 4.054984 3.352699
N 1.386146 0.000000 0.000000
N 0.725465 2.098629 0.069707
C 2.203664 -1.257651 -0.050765
C 1.994595 -2.135853 1.212981
C 2.608023 -3.490731 1.145081
C 1.882919 1.339260 -0.000000
C 0.000000 0.000000 0.000000
C -0.473255 1.336336 0.020913
C 2.137726 -4.303098 2.403763
C 0.790682 3.515682 0.041294
H 1.801254 -1.724695 -0.964786
H 3.248143 -0.954849 -0.191387
H 0.920755 -2.281564 1.395557
H 2.385968 -1.527027 2.031734
H 2.353721 -4.054080 0.244820
H 3.704012 -3.627567 1.123057
H 2.875672 1.665878 0.270300
H -0.604338 -0.894809 0.031517
H -1.457423 1.778452 0.060247
H 2.504787 -3.873865 3.346433
H 2.658667 -5.246596 2.206200
H 1.056887 -4.484443 2.405008
H 0.090106 3.912638 -0.700676
H 0.458970 3.973386 0.986584
H 1.845549 3.834044 0.021295
40

S 2.553308 2.326483 3.468457
S 4.925258 2.723309 2.004974
F 1.992449 2.269133 6.184180
F 3.929567 1.347180 5.497319
F 3.825873 3.463086 5.638345
F 6.463317 0.788866 3.038031
F 6.698869 0.969256 0.864928
F 7.574579 2.541711 2.291889
O 1.475614 1.316671 3.435963
O 2.243933 3.663495 3.052421
O 5.095379 3.725525 3.054747
O 4.697885 3.090774 0.649920
N 3.761793 1.674187 2.493534
C 3.082020 2.360770 5.308372
C 6.527539 1.653048 2.035601
N 1.406058 0.000000 -0.000000
N 0.816894 2.019609 0.212756
C 2.222525 -1.241530 0.043422
C 3.434068 -1.161650 1.116354
C 3.996705 -2.459731 1.413886
C 1.882923 1.238830 -0.000000
C 0.000000 0.000000 -0.000000
C -0.339033 1.311296 0.083423
C 5.200993 -2.465287 2.437340
C 0.831402 3.492597 0.367341
H 2.756927 -1.376849 -0.912875
H 1.601569 -2.097973 0.321843
H 4.203382 -0.513182 0.694280
H 3.018509 -0.770583 2.056235
H 4.387087 -2.720186 0.425977
H 3.315723 -3.236644 1.790143
H 2.883949 1.621406 0.128391
H -0.564913 -0.913453 -0.051744
H -1.288638 1.788870 0.222610
H 4.779247 -2.340398 3.443637
H 5.815406 -3.358220 2.318731
H 5.875290 -1.640758 2.194079
H 1.868770 3.852788 0.349178
H 0.291809 3.717981 1.288124
H 0.226804 3.957399 -0.429477
40

S -0.755508 1.687827 3.348036
S -2.267386 3.683471 2.136001
F -1.341918 0.462953 5.587301
F -0.583174 2.597993 5.797322
F -2.627014 2.121504 5.092997
F -2.462736 5.356220 4.228810
F -1.724490 6.425169 2.402381
F -3.733016 5.824391 2.582084
O 0.625610 1.364968 3.452329
O -1.569563 0.710585 2.598161
O -3.332533 2.787326 2.589195
O -2.064987 3.814903 0.689087
N -0.860016 3.175997 2.844718
C -1.359899 1.700045 5.043077
C -2.564942 5.434818 2.813898
N 1.390324 0.000000 -0.000000
N 0.663874 2.035700 -0.297651
C 2.350244 -1.042281 0.294625
C 2.852070 -1.049943 1.764970
C 1.812959 -1.525589 2.816497
C 1.754987 1.317733 -0.000000
C 0.000000 0.000000 -0.000000
C -0.478953 1.329827 -0.213460
C 1.495119 -3.010409 2.633222
C 0.648554 3.482493 -0.629700
H 3.167680 -0.986874 -0.435874
H 1.936096 -2.046259 0.141625
H 3.646992 -1.804329 1.754977
H 3.349867 -0.105009 2.041730
H 0.895835 -0.944181 2.671424
H 2.228330 -1.386692 3.827771
H 2.779425 1.667823 -0.045436
H -0.478594 -0.972788 0.091282
H -1.492170 1.697870 -0.291143
H 1.162967 -3.358792 3.611845
H 0.687969 -3.147054 1.908835
H 2.342332 -3.682811 2.475092
H 0.867712 3.982580 0.316441
H -0.312661 3.826811 -1.014031
H 1.472607 3.738234 -1.307073
40

S 0.745524 1.842009 3.863534
S 3.489578 2.186705 3.397538
F 1.654377 0.271947 5.735964
F -0.518558 0.387452 5.732240
F 0.681816 2.056992 6.539917
F 4.543697 2.001326 5.856271
F 4.722406 4.021238 5.074596
F 6.058169 2.424505 4.334070
O -0.392481 2.757776 3.726007
O 0.739951 0.716939 2.885840
O 3.424670 0.754294 3.367800
O 3.847277 2.905698 2.159717
N 2.067600 2.766475 3.835655
C 0.628760 1.135315 5.553460
C 4.803823 2.702271 4.762511
N 1.417392 0.000000 0.000000
N 0.720267 2.093943 -0.034926
C 2.287370 -1.146984 0.137352
C 1.586858 -2.264559 1.045156
C 2.620164 -3.341940 1.353912
C 1.882754 1.307302 0.000000
C 0.000000 0.000000 0.000000
C -0.416681 1.319900 -0.006502
C 3.541575 -3.010562 2.592173
C 0.801401 3.545974 0.076982
H 2.493594 -1.625350 -0.819955
H 3.147189 -0.759259 0.689151
H 0.691199 -2.653601 0.554298
H 1.147107 -1.804342 1.933648
H 2.174557 -4.337449 1.431341
H 3.336974 -3.388123 0.517520
H 2.815876 1.679795 0.405872
H -0.627702 -0.872707 0.148569
H -1.425717 1.682453 0.113501
H 4.132096 -3.889935 2.877810
H 2.912603 -2.772132 3.466328
H 4.224308 -2.209766 2.313603
H 0.591368 3.672296 1.145873
H 1.866245 3.793401 -0.018353
H 0.102724 4.010853 -0.627459
40

S 2.713721 1.195944 4.034258
S 0.004056 1.071863 3.862446
F 3.433510 1.509939 6.689783
F 2.224817 3.138935 5.922818
F 4.260562 3.077322 5.295725
F -1.179115 -0.389216 5.737107
F -2.177619 1.423621 5.226507
F -0.405974 1.514293 6.503399
O 3.786902 0.231243 3.979183
O 2.563316 2.053373 2.816394
O 0.140126 2.496480 3.562858
O -0.556659 0.141766 2.891355
N 1.416715 0.349584 4.396682
C 3.185423 2.286008 5.534677
C -0.968926 0.889571 5.405261
N 1.430140 0.000000 -0.000000
N 0.769365 2.076075 0.219294
C 2.312012 -1.160615 0.177127
C 1.815697 -2.016262 1.361079
C 2.591705 -3.375424 1.600432
C 1.822060 1.325179 0.000000
C 0.000000 0.000000 0.000000
C -0.387025 1.318451 0.302158
C 4.093096 -3.086878 1.981830
C 0.738879 3.524444 0.443341
H 2.411233 -1.785578 -0.712860
H 3.326038 -0.777435 0.365601
H 0.727971 -2.126812 1.274296
H 1.905478 -1.372867 2.239306
H 2.164544 -3.981596 2.407580
H 2.540800 -3.971004 0.682176
H 2.803852 1.754341 0.142142
H -0.562393 -0.904698 -0.150450
H -1.371824 1.748553 0.404058
H 4.538507 -4.082642 2.069369
H 4.215392 -2.539955 2.933785
H 4.608570 -2.498145 1.214640
H 1.500832 3.841741 1.162681
H 0.954732 3.951634 -0.545505
H -0.228999 3.890833 0.785354
40

S -1.062694 1.071103 3.591938
S 1.618469 1.626402 4.300323
F -1.430130 1.874725 6.105697
F -3.242240 1.186020 5.063323
F -1.777007 -0.259618 5.726286
F 3.742710 1.413412 5.935081
F 2.142724 0.241415 6.610186
F 3.298906 -0.422126 4.841583
O -1.672055 0.055742 2.687382
O -1.107826 2.473330 3.209028
O 1.073869 2.731960 5.087249
O 2.396756 1.981948 3.116576
N 0.417512 0.551260 3.872570
C -1.945143 0.966605 5.238530
C 2.728158 0.605429 5.471564
N 1.395887 0.000000 -0.000000
N 0.670541 2.029042 0.166920
C 2.265943 -1.141476 0.120977
C 2.270456 -1.920488 1.472057
C 1.053237 -2.803014 1.814002
C 1.824073 1.296170 -0.000000
C 0.000000 0.000000 -0.000000
C -0.476256 1.272693 0.132408
C 1.151168 -3.611344 3.195311
C 0.682075 3.438473 0.519018
H 3.277701 -0.829033 -0.145528
H 1.912763 -1.893825 -0.595706
H 3.179914 -2.522275 1.518314
H 2.291232 -1.314777 2.388999
H 0.816757 -3.462296 0.969181
H 0.257113 -2.054123 1.894300
H 2.783535 1.677425 0.299295
H -0.594318 -0.870427 0.211763
H -1.467669 1.611777 0.372456
H 0.215920 -4.117712 3.477273
H 1.870424 -4.433517 3.126011
H 1.380055 -2.995380 4.071210
H 0.013755 3.668123 1.351549
H 0.426109 4.046342 -0.356583
H 1.630075 3.809396 0.933038
