          40
  Built with Packmol                                             
  S           -0.004372       -0.782196        1.491805
  S           -0.004362       -0.782291       -1.491995
  F            1.222456        1.245943        2.541413
  F           -0.246716        0.283191        3.835006
  F           -0.910352        1.545772        2.184506
  F           -0.250190        0.283905       -3.834394
  F            1.223474        1.243752       -2.543987
  F           -0.907937        1.547380       -2.182294
  O           -1.363956       -1.283441        1.459000
  O            1.106755       -1.634760        1.864608
  O            1.106668       -1.634953       -1.864592
  O           -1.363946       -1.283436       -1.459000
  N            0.359407       -0.005181        0.000008
  C            0.016477        0.628103        2.551308
  C            0.016595        0.628212       -2.551392
  N            3.194762       -0.222906       -9.429532
  N            3.790076       -2.283237       -9.342810
  C            3.118392        1.175672       -9.840066
  C            4.089695        2.069134       -9.071714
  C            5.549197        1.652626       -9.258012
  C            4.002650       -1.126190       -9.977969
  C            2.452822       -0.793431       -8.432737
  C            2.830305       -2.105293       -8.375591
  C            6.490442        2.569940       -8.492815
  C            4.470484       -3.526969       -9.636142
  H            3.323061        1.226895      -10.916137
  H            2.090652        1.526760       -9.691593
  H            3.839340        2.038941       -8.004262
  H            3.956679        3.105112       -9.405106
  H            5.706136        0.631360       -8.896251
  H            5.810173        1.669657      -10.322274
  H            4.697354       -0.961873      -10.786958
  H            1.753352       -0.183215       -7.894720
  H            2.548865       -2.949167       -7.775592
  H            6.275144        2.546647       -7.419777
  H            6.398170        3.604024       -8.839863
  H            7.528327        2.254571       -8.638009
  H            5.199793       -3.376370      -10.436645
  H            4.988925       -3.875126       -8.738607
  H            3.736441       -4.272645       -9.953358
