          40
  Built with Packmol                                             
  S           -0.004372       -0.782196        1.491805
  S           -0.004362       -0.782291       -1.491995
  F            1.222456        1.245943        2.541413
  F           -0.246716        0.283191        3.835006
  F           -0.910352        1.545772        2.184506
  F           -0.250190        0.283905       -3.834394
  F            1.223474        1.243752       -2.543987
  F           -0.907937        1.547380       -2.182294
  O           -1.363956       -1.283441        1.459000
  O            1.106755       -1.634760        1.864608
  O            1.106668       -1.634953       -1.864592
  O           -1.363946       -1.283436       -1.459000
  N            0.359407       -0.005181        0.000008
  C            0.016477        0.628103        2.551308
  C            0.016595        0.628212       -2.551392
  N           -3.601155        2.240373        5.990346
  N           -5.096226        2.135397        4.453913
  C           -2.979929        2.349017        7.306654
  C           -2.689314        3.794748        7.703486
  C           -3.950745        4.657358        7.758502
  C           -4.913303        2.256952        5.772677
  C           -2.926117        2.107734        4.808692
  C           -3.876053        2.040861        3.828952
  C           -3.629218        6.085648        8.170255
  C           -6.384974        2.107939        3.794941
  H           -3.647827        1.879590        8.038769
  H           -2.049966        1.768756        7.302009
  H           -1.985031        4.230946        6.984626
  H           -2.195944        3.800505        8.682592
  H           -4.436097        4.690673        6.777782
  H           -4.667527        4.227167        8.467170
  H           -5.688509        2.346609        6.517723
  H           -1.853716        2.080540        4.825960
  H           -3.857049        1.938453        2.761018
  H           -2.940403        6.553478        7.459639
  H           -3.170026        6.113323        9.163565
  H           -4.543762        6.685919        8.202312
  H           -7.185461        2.224574        4.530463
  H           -6.438542        2.927113        3.072688
  H           -6.505623        1.150927        3.280111
