          40
  Built with Packmol                                             
  S           -0.004372       -0.782196        1.491805
  S           -0.004362       -0.782291       -1.491995
  F            1.222456        1.245943        2.541413
  F           -0.246716        0.283191        3.835006
  F           -0.910352        1.545772        2.184506
  F           -0.250190        0.283905       -3.834394
  F            1.223474        1.243752       -2.543987
  F           -0.907937        1.547380       -2.182294
  O           -1.363956       -1.283441        1.459000
  O            1.106755       -1.634760        1.864608
  O            1.106668       -1.634953       -1.864592
  O           -1.363946       -1.283436       -1.459000
  N            0.359407       -0.005181        0.000008
  C            0.016477        0.628103        2.551308
  C            0.016595        0.628212       -2.551392
  N           -0.616212        1.737004       -8.147496
  N           -0.747269        3.822947       -8.635913
  C           -0.336474        0.308667       -8.257010
  C           -1.504526       -0.476753       -8.849326
  C           -1.877470       -0.009559      -10.256797
  C           -0.355658        2.630898       -9.097471
  C           -1.180146        2.348837       -7.062501
  C           -1.264730        3.677085       -7.371281
  C           -3.032828       -0.820357      -10.823090
  C           -0.638409        5.069926       -9.363278
  H            0.560116        0.183205       -8.875740
  H           -0.094828       -0.076529       -7.259620
  H           -2.376964       -0.375001       -8.192408
  H           -1.240162       -1.540560       -8.872117
  H           -2.178573        1.042904      -10.244735
  H           -1.010987       -0.097468      -10.922027
  H            0.092023        2.436076      -10.059605
  H           -1.448004        1.750969       -6.212861
  H           -1.624950        4.551346       -6.864092
  H           -3.924928       -0.723434      -10.196138
  H           -2.772028       -1.881475      -10.888663
  H           -3.284708       -0.470013      -11.828853
  H           -0.211008        4.891012      -10.353579
  H           -1.632905        5.510345       -9.475404
  H            0.010084        5.754187       -8.809454
