          40
  Built with Packmol                                             
  S           -0.004372       -0.782196        1.491805
  S           -0.004362       -0.782291       -1.491995
  F            1.222456        1.245943        2.541413
  F           -0.246716        0.283191        3.835006
  F           -0.910352        1.545772        2.184506
  F           -0.250190        0.283905       -3.834394
  F            1.223474        1.243752       -2.543987
  F           -0.907937        1.547380       -2.182294
  O           -1.363956       -1.283441        1.459000
  O            1.106755       -1.634760        1.864608
  O            1.106668       -1.634953       -1.864592
  O           -1.363946       -1.283436       -1.459000
  N            0.359407       -0.005181        0.000008
  C            0.016477        0.628103        2.551308
  C            0.016595        0.628212       -2.551392
  N            0.008711       -0.969631      -10.839083
  N           -2.099293       -1.056996      -11.233510
  C            1.401605       -1.376556      -10.682077
  C            1.722909       -1.842850       -9.263838
  C            0.880140       -3.043278       -8.831347
  C           -0.979037       -1.785715      -11.196504
  C           -0.469704        0.296026      -10.642090
  C           -1.811790        0.242772      -10.892509
  C            1.234258       -3.491425       -7.421845
  C           -3.408817       -1.567145      -11.581020
  H            1.606110       -2.177698      -11.402348
  H            2.044281       -0.530508      -10.951757
  H            1.555158       -1.013894       -8.565458
  H            2.787128       -2.100731       -9.208799
  H           -0.184840       -2.790164       -8.846761
  H            1.031526       -3.876661       -9.526765
  H           -0.895867       -2.837897      -11.420273
  H            0.214863        1.067504      -10.346671
  H           -2.614395        0.954727      -10.875911
  H            1.059600       -2.688155       -6.698963
  H            2.285647       -3.789351       -7.357752
  H            0.620087       -4.349407       -7.131320
  H           -3.351877       -2.639608      -11.785859
  H           -4.095486       -1.396558      -10.747383
  H           -3.771906       -1.048995      -12.472740
