          40
  Built with Packmol                                             
  S           -0.004372       -0.782196        1.491805
  S           -0.004362       -0.782291       -1.491995
  F            1.222456        1.245943        2.541413
  F           -0.246716        0.283191        3.835006
  F           -0.910352        1.545772        2.184506
  F           -0.250190        0.283905       -3.834394
  F            1.223474        1.243752       -2.543987
  F           -0.907937        1.547380       -2.182294
  O           -1.363956       -1.283441        1.459000
  O            1.106755       -1.634760        1.864608
  O            1.106668       -1.634953       -1.864592
  O           -1.363946       -1.283436       -1.459000
  N            0.359407       -0.005181        0.000008
  C            0.016477        0.628103        2.551308
  C            0.016595        0.628212       -2.551392
  N           -5.604181        2.547984        0.793220
  N           -4.629454        3.697934       -0.734656
  C           -5.839934        1.544513        1.826592
  C           -6.412192        0.244472        1.265805
  C           -5.488704       -0.413590        0.239911
  C           -4.466441        2.680244        0.116876
  C           -6.512494        3.483057        0.380689
  C           -5.894101        4.216327       -0.592268
  C           -6.080146       -1.711630       -0.287555
  C           -3.622863        4.173770       -1.659979
  H           -4.889624        1.352985        2.339106
  H           -6.526814        1.964902        2.570249
  H           -7.382622        0.450377        0.797925
  H           -6.594639       -0.448668        2.095481
  H           -5.325293        0.253148       -0.612876
  H           -4.511369       -0.616622        0.692289
  H           -3.575001        2.083732        0.233436
  H           -7.482970        3.498271        0.837885
  H           -6.178181        5.044540       -1.212505
  H           -7.043209       -1.534027       -0.776708
  H           -6.233628       -2.430569        0.523529
  H           -5.405555       -2.165436       -1.020175
  H           -2.718648        3.564744       -1.577151
  H           -4.009667        4.105683       -2.680425
  H           -3.379718        5.213319       -1.423975
