          40
  Built with Packmol                                             
  S           -0.004372       -0.782196        1.491805
  S           -0.004362       -0.782291       -1.491995
  F            1.222456        1.245943        2.541413
  F           -0.246716        0.283191        3.835006
  F           -0.910352        1.545772        2.184506
  F           -0.250190        0.283905       -3.834394
  F            1.223474        1.243752       -2.543987
  F           -0.907937        1.547380       -2.182294
  O           -1.363956       -1.283441        1.459000
  O            1.106755       -1.634760        1.864608
  O            1.106668       -1.634953       -1.864592
  O           -1.363946       -1.283436       -1.459000
  N            0.359407       -0.005181        0.000008
  C            0.016477        0.628103        2.551308
  C            0.016595        0.628212       -2.551392
  N           -3.260742        4.253347        3.685883
  N           -4.054886        2.697605        4.933235
  C           -3.170709        5.473364        2.889740
  C           -3.525993        5.246623        1.421942
  C           -4.949908        4.722174        1.232860
  C           -4.358054        3.844623        4.316945
  C           -2.238326        3.369053        3.891470
  C           -2.741716        2.377516        4.685318
  C           -5.276773        4.521126       -0.238762
  C           -4.974703        1.919939        5.736379
  H           -3.840212        6.220108        3.333116
  H           -2.151191        5.867805        2.970697
  H           -2.817394        4.531790        0.986117
  H           -3.406151        6.191526        0.878903
  H           -5.075237        3.760217        1.740225
  H           -5.668309        5.423378        1.672477
  H           -5.314249        4.344064        4.334989
  H           -1.285243        3.566422        3.440073
  H           -2.346895        1.476919        5.114703
  H           -4.595132        3.797477       -0.697023
  H           -5.199114        5.463732       -0.789897
  H           -6.298172        4.144812       -0.352237
  H           -5.959267        2.395248        5.746026
  H           -5.064476        0.916164        5.312185
  H           -4.594878        1.857620        6.759769
