          40
  Built with Packmol                                             
  S           -0.004372       -0.782196        1.491805
  S           -0.004362       -0.782291       -1.491995
  F            1.222456        1.245943        2.541413
  F           -0.246716        0.283191        3.835006
  F           -0.910352        1.545772        2.184506
  F           -0.250190        0.283905       -3.834394
  F            1.223474        1.243752       -2.543987
  F           -0.907937        1.547380       -2.182294
  O           -1.363956       -1.283441        1.459000
  O            1.106755       -1.634760        1.864608
  O            1.106668       -1.634953       -1.864592
  O           -1.363946       -1.283436       -1.459000
  N            0.359407       -0.005181        0.000008
  C            0.016477        0.628103        2.551308
  C            0.016595        0.628212       -2.551392
  N           -1.933614       -2.903630        8.342229
  N           -0.026030       -3.047300        9.315556
  C           -3.038609       -2.387710        7.540230
  C           -4.019922       -1.551060        8.358222
  C           -3.361112       -0.331911        9.004733
  C           -0.780567       -2.268577        8.533483
  C           -1.930707       -4.100963        9.002502
  C           -0.717111       -4.194533        9.623124
  C           -4.366920        0.486933        9.798948
  C            1.312002       -2.723726        9.763706
  H           -2.617037       -1.790232        6.723076
  H           -3.561705       -3.234934        7.081822
  H           -4.463434       -2.178840        9.140675
  H           -4.837340       -1.224836        7.704387
  H           -2.565135       -0.643301        9.688797
  H           -2.905521        0.299931        8.233848
  H           -0.500345       -1.307497        8.131143
  H           -2.799766       -4.727163        8.941726
  H           -0.240500       -4.924272       10.248946
  H           -4.813957       -0.110141       10.600176
  H           -5.171278        0.853342        9.153162
  H           -3.875940        1.352769       10.253934
  H            1.606050       -1.739746        9.388610
  H            1.333696       -2.712700       10.856854
  H            2.009754       -3.476206        9.386356
