          40
  Built with Packmol                                             
  S           -0.004372       -0.782196        1.491805
  S           -0.004362       -0.782291       -1.491995
  F            1.222456        1.245943        2.541413
  F           -0.246716        0.283191        3.835006
  F           -0.910352        1.545772        2.184506
  F           -0.250190        0.283905       -3.834394
  F            1.223474        1.243752       -2.543987
  F           -0.907937        1.547380       -2.182294
  O           -1.363956       -1.283441        1.459000
  O            1.106755       -1.634760        1.864608
  O            1.106668       -1.634953       -1.864592
  O           -1.363946       -1.283436       -1.459000
  N            0.359407       -0.005181        0.000008
  C            0.016477        0.628103        2.551308
  C            0.016595        0.628212       -2.551392
  N           -0.017480        0.280109      -10.518946
  N            1.204674       -1.389277       -9.947654
  C           -0.447139        1.524571      -11.149104
  C           -0.148956        2.752660      -10.291809
  C            1.342317        2.920161       -9.997902
  C            1.185619       -0.266100      -10.672557
  C           -0.785589       -0.490012       -9.690394
  C           -0.009405       -1.553472       -9.325247
  C            1.606623        4.158607       -9.155689
  C            2.334600       -2.288071       -9.841334
  H            0.055504        1.606348      -12.120239
  H           -1.523060        1.460658      -11.348767
  H           -0.696521        2.672425       -9.344826
  H           -0.525299        3.643981      -10.807568
  H            1.725584        2.052742       -9.450930
  H            1.902862        2.992452      -10.936846
  H            1.995677        0.118767      -11.272357
  H           -1.786734       -0.173092       -9.470502
  H           -0.150119       -2.415509       -8.702013
  H            1.085747        4.098404       -8.194768
  H            1.271160        5.063241       -9.672787
  H            2.677873        4.259503       -8.955718
  H            3.177287       -1.902251      -10.421333
  H            2.629963       -2.373957       -8.792074
  H            2.050722       -3.270433      -10.228447
