          40
  Built with Packmol                                             
  S           -0.004372       -0.782196        1.491805
  S           -0.004362       -0.782291       -1.491995
  F            1.222456        1.245943        2.541413
  F           -0.246716        0.283191        3.835006
  F           -0.910352        1.545772        2.184506
  F           -0.250190        0.283905       -3.834394
  F            1.223474        1.243752       -2.543987
  F           -0.907937        1.547380       -2.182294
  O           -1.363956       -1.283441        1.459000
  O            1.106755       -1.634760        1.864608
  O            1.106668       -1.634953       -1.864592
  O           -1.363946       -1.283436       -1.459000
  N            0.359407       -0.005181        0.000008
  C            0.016477        0.628103        2.551308
  C            0.016595        0.628212       -2.551392
  N           -0.048287       -5.271837       -5.551451
  N           -0.780559       -7.101542       -4.701249
  C            0.604231       -4.337613       -6.463502
  C            2.077228       -4.116863       -6.126431
  C            2.896431       -5.406770       -6.184561
  C           -0.109840       -6.587540       -5.737258
  C           -0.681205       -4.926922       -4.389545
  C           -1.148137       -6.090399       -3.846374
  C            4.359644       -5.150476       -5.858596
  C           -1.070652       -8.507901       -4.517212
  H            0.500741       -4.727847       -7.483036
  H            0.065969       -3.383348       -6.428733
  H            2.155878       -3.684509       -5.121480
  H            2.494335       -3.383538       -6.826682
  H            2.513863       -6.137272       -5.464495
  H            2.819017       -5.854490       -7.181860
  H            0.299040       -7.140219       -6.568786
  H           -0.711823       -3.893033       -4.104555
  H           -1.696964       -6.346256       -2.960565
  H            4.470608       -4.734296       -4.852222
  H            4.803060       -4.448536       -6.572002
  H            4.927510       -6.084918       -5.904327
  H           -0.641130       -9.090370       -5.336734
  H           -0.637704       -8.844958       -3.571425
  H           -2.154273       -8.652829       -4.501729
