          40
  Built with Packmol                                             
  S           -0.004372       -0.782196        1.491805
  S           -0.004362       -0.782291       -1.491995
  F            1.222456        1.245943        2.541413
  F           -0.246716        0.283191        3.835006
  F           -0.910352        1.545772        2.184506
  F           -0.250190        0.283905       -3.834394
  F            1.223474        1.243752       -2.543987
  F           -0.907937        1.547380       -2.182294
  O           -1.363956       -1.283441        1.459000
  O            1.106755       -1.634760        1.864608
  O            1.106668       -1.634953       -1.864592
  O           -1.363946       -1.283436       -1.459000
  N            0.359407       -0.005181        0.000008
  C            0.016477        0.628103        2.551308
  C            0.016595        0.628212       -2.551392
  N            3.558209       -6.060499        3.450193
  N            1.559424       -6.678927        2.971352
  C            4.744571       -5.224534        3.605431
  C            5.644409       -5.243739        2.371741
  C            4.934092       -4.740870        1.114400
  C            2.397614       -5.637486        2.956769
  C            3.476231       -7.383027        3.787501
  C            2.204450       -7.778998        3.483330
  C            5.860571       -4.758840       -0.091522
  C            0.185508       -6.643532        2.516413
  H            4.414840       -4.201171        3.820949
  H            5.304050       -5.572826        4.481350
  H            5.999246       -6.267389        2.200646
  H            6.527722       -4.624749        2.568472
  H            4.069138       -5.371181        0.884078
  H            4.566090       -3.721170        1.275137
  H            2.169250       -4.640762        2.612579
  H            4.341027       -7.866225        4.199485
  H            1.659220       -8.700043        3.559032
  H            6.217272       -5.773064       -0.297481
  H            6.730444       -4.114944        0.072817
  H            5.333563       -4.397101       -0.979864
  H           -0.059194       -5.647494        2.137722
  H            0.051676       -7.375414        1.715163
  H           -0.476785       -6.883600        3.352603
