          40
  Built with Packmol                                             
  S           -0.004372       -0.782196        1.491805
  S           -0.004362       -0.782291       -1.491995
  F            1.222456        1.245943        2.541413
  F           -0.246716        0.283191        3.835006
  F           -0.910352        1.545772        2.184506
  F           -0.250190        0.283905       -3.834394
  F            1.223474        1.243752       -2.543987
  F           -0.907937        1.547380       -2.182294
  O           -1.363956       -1.283441        1.459000
  O            1.106755       -1.634760        1.864608
  O            1.106668       -1.634953       -1.864592
  O           -1.363946       -1.283436       -1.459000
  N            0.359407       -0.005181        0.000008
  C            0.016477        0.628103        2.551308
  C            0.016595        0.628212       -2.551392
  N           -5.128092       -2.612012       -3.097099
  N           -6.926342       -1.559543       -3.612356
  C           -4.040384       -3.584730       -3.130333
  C           -4.342920       -4.835220       -2.307646
  C           -5.588347       -5.576392       -2.795405
  C           -6.138456       -2.581567       -3.961752
  C           -5.258089       -1.605952       -2.180300
  C           -6.402509       -0.934565       -2.506310
  C           -5.853250       -6.823032       -1.965556
  C           -8.141788       -1.177325       -4.299719
  H           -3.854504       -3.852840       -4.177236
  H           -3.130056       -3.102405       -2.755869
  H           -4.480582       -4.550770       -1.257322
  H           -3.475634       -5.504660       -2.349578
  H           -6.470485       -4.931799       -2.725983
  H           -5.467671       -5.858673       -3.847454
  H           -6.294588       -3.250885       -4.793444
  H           -4.513890       -1.505176       -1.414078
  H           -6.926166       -0.089458       -2.102691
  H           -6.012452       -6.567551       -0.913088
  H           -5.011997       -7.520765       -2.026775
  H           -6.748049       -7.337531       -2.329382
  H           -8.333524       -1.860429       -5.131573
  H           -8.980716       -1.219254       -3.599714
  H           -8.031916       -0.160620       -4.686651
