          40
  Built with Packmol                                             
  S           -0.004372       -0.782196        1.491805
  S           -0.004362       -0.782291       -1.491995
  F            1.222456        1.245943        2.541413
  F           -0.246716        0.283191        3.835006
  F           -0.910352        1.545772        2.184506
  F           -0.250190        0.283905       -3.834394
  F            1.223474        1.243752       -2.543987
  F           -0.907937        1.547380       -2.182294
  O           -1.363956       -1.283441        1.459000
  O            1.106755       -1.634760        1.864608
  O            1.106668       -1.634953       -1.864592
  O           -1.363946       -1.283436       -1.459000
  N            0.359407       -0.005181        0.000008
  C            0.016477        0.628103        2.551308
  C            0.016595        0.628212       -2.551392
  N            0.598359        6.508393        0.902482
  N           -1.471797        6.977255        0.583880
  C            2.034082        6.669783        1.109956
  C            2.819318        6.696212       -0.199538
  C            2.393747        7.840172       -1.120721
  C           -0.258417        7.514087        0.747878
  C           -0.059184        5.311250        0.838744
  C           -1.377473        5.607311        0.635761
  C            3.203678        7.847216       -2.407925
  C           -2.691478        7.731037        0.383734
  H            2.195437        7.598577        1.670087
  H            2.389364        5.847728        1.742061
  H            2.680772        5.741765       -0.721915
  H            3.887583        6.786098        0.030300
  H            1.336564        7.744433       -1.388459
  H            2.518641        8.800242       -0.607186
  H           -0.023694        8.567128        0.757158
  H            0.505044        4.404986        0.945585
  H           -2.274306        5.029954        0.518798
  H            3.070639        6.911721       -2.960605
  H            4.270640        7.974652       -2.199027
  H            2.883334        8.671343       -3.052858
  H           -2.472042        8.801920        0.362920
  H           -3.144516        7.438575       -0.567469
  H           -3.383064        7.521046        1.204156
