          40
  Built with Packmol                                             
  S           -0.004372       -0.782196        1.491805
  S           -0.004362       -0.782291       -1.491995
  F            1.222456        1.245943        2.541413
  F           -0.246716        0.283191        3.835006
  F           -0.910352        1.545772        2.184506
  F           -0.250190        0.283905       -3.834394
  F            1.223474        1.243752       -2.543987
  F           -0.907937        1.547380       -2.182294
  O           -1.363956       -1.283441        1.459000
  O            1.106755       -1.634760        1.864608
  O            1.106668       -1.634953       -1.864592
  O           -1.363946       -1.283436       -1.459000
  N            0.359407       -0.005181        0.000008
  C            0.016477        0.628103        2.551308
  C            0.016595        0.628212       -2.551392
  N            2.635036       -2.728578        7.779425
  N            1.967625       -1.579443        9.464932
  C            2.874852       -3.146615        6.401700
  C            1.756434       -4.028204        5.850327
  C            0.397491       -3.327056        5.849237
  C            1.986509       -1.620991        8.128784
  C            3.040260       -3.411815        8.892330
  C            2.616253       -2.682065        9.966771
  C           -0.690401       -4.225407        5.281445
  C            1.356205       -0.530160       10.252992
  H            2.988491       -2.245791        5.786848
  H            3.828870       -3.684972        6.361983
  H            1.689747       -4.943348        6.451248
  H            2.015656       -4.331086        4.828975
  H            0.107765       -3.049781        6.867896
  H            0.452632       -2.405194        5.259169
  H            1.558490       -0.888169        7.462566
  H            3.577630       -4.331949        8.767153
  H            2.684399       -2.792305       11.031916
  H           -0.792012       -5.140863        5.872985
  H           -0.466355       -4.506918        4.247597
  H           -1.653814       -3.706278        5.290641
  H            0.892138        0.210740        9.596421
  H            0.590756       -0.965201       10.901368
  H            2.123583       -0.042639       10.860390
