          40
  Built with Packmol                                             
  S           -0.004372       -0.782196        1.491805
  S           -0.004362       -0.782291       -1.491995
  F            1.222456        1.245943        2.541413
  F           -0.246716        0.283191        3.835006
  F           -0.910352        1.545772        2.184506
  F           -0.250190        0.283905       -3.834394
  F            1.223474        1.243752       -2.543987
  F           -0.907937        1.547380       -2.182294
  O           -1.363956       -1.283441        1.459000
  O            1.106755       -1.634760        1.864608
  O            1.106668       -1.634953       -1.864592
  O           -1.363946       -1.283436       -1.459000
  N            0.359407       -0.005181        0.000008
  C            0.016477        0.628103        2.551308
  C            0.016595        0.628212       -2.551392
  N           -0.534544        6.069988       -6.105166
  N            1.025174        6.199559       -7.573967
  C           -1.381800        6.387447       -4.959841
  C           -0.873626        5.765910       -3.660796
  C            0.532832        6.238169       -3.290414
  C            0.502258        6.802946       -6.501653
  C           -0.687866        4.984374       -6.922179
  C            0.304278        5.064695       -7.858096
  C            1.003029        5.612988       -1.986191
  C            2.173666        6.676085       -8.315422
  H           -1.433253        7.478751       -4.865777
  H           -2.398236        6.034971       -5.170021
  H           -0.872900        4.673599       -3.760290
  H           -1.571040        6.015779       -2.852543
  H            1.248190        5.964092       -4.072483
  H            0.548301        7.329972       -3.196722
  H            0.855773        7.716294       -6.048995
  H           -1.486989        4.296546       -6.723743
  H            0.604292        4.467159       -8.697306
  H            1.030840        4.521280       -2.061731
  H            0.338398        5.883843       -1.159638
  H            2.010553        5.962282       -1.739956
  H            2.564847        7.588160       -7.856648
  H            2.951886        5.908044       -8.308274
  H            1.873746        6.890784       -9.344708
