          40
  Built with Packmol                                             
  S           -0.004372       -0.782196        1.491805
  S           -0.004362       -0.782291       -1.491995
  F            1.222456        1.245943        2.541413
  F           -0.246716        0.283191        3.835006
  F           -0.910352        1.545772        2.184506
  F           -0.250190        0.283905       -3.834394
  F            1.223474        1.243752       -2.543987
  F           -0.907937        1.547380       -2.182294
  O           -1.363956       -1.283441        1.459000
  O            1.106755       -1.634760        1.864608
  O            1.106668       -1.634953       -1.864592
  O           -1.363946       -1.283436       -1.459000
  N            0.359407       -0.005181        0.000008
  C            0.016477        0.628103        2.551308
  C            0.016595        0.628212       -2.551392
  N           -4.444282       -3.539482       -4.688680
  N           -4.593003       -4.287207       -6.695088
  C           -4.248352       -3.495648       -3.242969
  C           -5.542868       -3.724220       -2.465762
  C           -6.180125       -5.081598       -2.765367
  C           -4.351291       -4.640921       -5.428662
  C           -4.748074       -2.463589       -5.475917
  C           -4.843421       -2.937329       -6.753892
  C           -7.457833       -5.283818       -1.965680
  C           -4.588774       -5.193507       -7.824013
  H           -3.504339       -4.255813       -2.976444
  H           -3.820982       -2.521457       -2.978654
  H           -6.256296       -2.928432       -2.712306
  H           -5.330038       -3.645752       -1.393083
  H           -6.431526       -5.161521       -3.827863
  H           -5.473704       -5.886253       -2.531805
  H           -4.119748       -5.634625       -5.077925
  H           -4.857532       -1.500582       -5.015788
  H           -5.057247       -2.499872       -7.710051
  H           -8.196857       -4.512467       -2.204778
  H           -7.257217       -5.246497       -0.890204
  H           -7.898279       -6.259070       -2.195103
  H           -4.382262       -6.212768       -7.486617
  H           -5.567293       -5.167663       -8.311245
  H           -3.814068       -4.884264       -8.530892
