          40
  Built with Packmol                                             
  S           -0.004372       -0.782196        1.491805
  S           -0.004362       -0.782291       -1.491995
  F            1.222456        1.245943        2.541413
  F           -0.246716        0.283191        3.835006
  F           -0.910352        1.545772        2.184506
  F           -0.250190        0.283905       -3.834394
  F            1.223474        1.243752       -2.543987
  F           -0.907937        1.547380       -2.182294
  O           -1.363956       -1.283441        1.459000
  O            1.106755       -1.634760        1.864608
  O            1.106668       -1.634953       -1.864592
  O           -1.363946       -1.283436       -1.459000
  N            0.359407       -0.005181        0.000008
  C            0.016477        0.628103        2.551308
  C            0.016595        0.628212       -2.551392
  N            1.501813       -2.108693        7.459230
  N            3.572202       -1.946766        8.001591
  C            0.069076       -2.373757        7.545229
  C           -0.291167       -3.801844        7.141668
  C            0.387108       -4.853229        8.020797
  C            2.364007       -2.296728        8.454545
  C            2.150681       -1.634509        6.353022
  C            3.469151       -1.530754        6.695968
  C           -0.003306       -6.262363        7.602645
  C            4.794870       -2.000558        8.774932
  H           -0.253235       -2.175592        8.574447
  H           -0.456679       -1.659591        6.900944
  H           -0.001817       -3.964572        6.096279
  H           -1.379603       -3.921358        7.197500
  H            1.476248       -4.769827        7.947966
  H            0.113413       -4.696327        9.070332
  H            2.135276       -2.658903        9.444791
  H            1.581823       -1.435670        5.465358
  H            4.361208       -1.216087        6.189460
  H            0.289765       -6.459832        6.566585
  H           -1.084337       -6.411489        7.688785
  H            0.492904       -6.998788        8.242331
  H            4.589653       -2.391051        9.775321
  H            5.510851       -2.656999        8.272916
  H            5.211497       -0.993256        8.860032
