          40
  Built with Packmol                                             
  S           -0.004372       -0.782196        1.491805
  S           -0.004362       -0.782291       -1.491995
  F            1.222456        1.245943        2.541413
  F           -0.246716        0.283191        3.835006
  F           -0.910352        1.545772        2.184506
  F           -0.250190        0.283905       -3.834394
  F            1.223474        1.243752       -2.543987
  F           -0.907937        1.547380       -2.182294
  O           -1.363956       -1.283441        1.459000
  O            1.106755       -1.634760        1.864608
  O            1.106668       -1.634953       -1.864592
  O           -1.363946       -1.283436       -1.459000
  N            0.359407       -0.005181        0.000008
  C            0.016477        0.628103        2.551308
  C            0.016595        0.628212       -2.551392
  N            0.931267       -5.094946        4.604347
  N           -0.765568       -6.143919        5.396367
  C            2.277956       -4.819860        4.113279
  C            3.232689       -4.385962        5.223362
  C            3.388742       -5.444549        6.315779
  C            0.512416       -6.283724        5.029505
  C           -0.077687       -4.176564        4.694696
  C           -1.159092       -4.842193        5.198920
  C            4.355853       -4.988186        7.397148
  C           -1.598705       -7.206096        5.919367
  H            2.652652       -5.724823        3.620241
  H            2.216527       -4.038613        3.346835
  H            2.863867       -3.455733        5.672459
  H            4.211604       -4.165038        4.781760
  H            2.424424       -5.650453        6.791365
  H            3.748379       -6.382991        5.878699
  H            1.090385       -7.193954        5.068359
  H            0.113261       -3.166578        4.387205
  H           -2.166593       -4.570840        5.449201
  H            4.003747       -4.069097        7.876317
  H            5.350024       -4.799437        6.979674
  H            4.452424       -5.758170        8.168862
  H           -1.023644       -8.133106        5.992393
  H           -1.957777       -6.926780        6.913658
  H           -2.447862       -7.361020        5.248242
