          40
  Built with Packmol                                             
  S           -0.004372       -0.782196        1.491805
  S           -0.004362       -0.782291       -1.491995
  F            1.222456        1.245943        2.541413
  F           -0.246716        0.283191        3.835006
  F           -0.910352        1.545772        2.184506
  F           -0.250190        0.283905       -3.834394
  F            1.223474        1.243752       -2.543987
  F           -0.907937        1.547380       -2.182294
  O           -1.363956       -1.283441        1.459000
  O            1.106755       -1.634760        1.864608
  O            1.106668       -1.634953       -1.864592
  O           -1.363946       -1.283436       -1.459000
  N            0.359407       -0.005181        0.000008
  C            0.016477        0.628103        2.551308
  C            0.016595        0.628212       -2.551392
  N            3.050307       -0.746747        9.546099
  N            3.420080        1.337020        9.903962
  C            2.480995       -1.973007        8.996043
  C            1.272823       -2.468527        9.787781
  C            0.131818       -1.451082        9.823116
  C            2.681291        0.480854        9.190839
  C            4.033382       -0.690494       10.494768
  C            4.270365        0.635356       10.724339
  C           -1.059994       -1.980243       10.605744
  C            3.331408        2.779451        9.817941
  H            2.200943       -1.781198        7.953343
  H            3.260456       -2.743602        8.982648
  H            1.584112       -2.697310       10.814328
  H            0.917696       -3.405157        9.342019
  H            0.461017       -0.521454       10.298412
  H           -0.183045       -1.206467        8.802295
  H            1.930581        0.741721        8.461140
  H            4.432128       -1.608440       10.881368
  H            4.932032        1.187033       11.364011
  H           -0.782787       -2.201124       11.641444
  H           -1.451797       -2.895994       10.151676
  H           -1.863902       -1.237769       10.620169
  H            2.556208        3.066070        9.102197
  H            3.079692        3.184873       10.801728
  H            4.293303        3.180036        9.486629
