          40
  Built with Packmol                                             
  S           -0.004372       -0.782196        1.491805
  S           -0.004362       -0.782291       -1.491995
  F            1.222456        1.245943        2.541413
  F           -0.246716        0.283191        3.835006
  F           -0.910352        1.545772        2.184506
  F           -0.250190        0.283905       -3.834394
  F            1.223474        1.243752       -2.543987
  F           -0.907937        1.547380       -2.182294
  O           -1.363956       -1.283441        1.459000
  O            1.106755       -1.634760        1.864608
  O            1.106668       -1.634953       -1.864592
  O           -1.363946       -1.283436       -1.459000
  N            0.359407       -0.005181        0.000008
  C            0.016477        0.628103        2.551308
  C            0.016595        0.628212       -2.551392
  N           -0.530393       -2.837960       -8.102100
  N           -2.604896       -2.287682       -8.079386
  C            0.689639       -3.614174       -8.300611
  C            1.055467       -4.458715       -7.082009
  C           -0.032910       -5.467925       -6.714225
  C           -1.753854       -3.268503       -8.397336
  C           -0.584234       -1.571531       -7.589426
  C           -1.904200       -1.219126       -7.573866
  C            0.368048       -6.301870       -5.507286
  C           -4.041604       -2.350470       -8.246106
  H            0.547309       -4.254424       -9.179396
  H            1.507696       -2.923450       -8.535639
  H            1.237645       -3.796800       -6.226601
  H            1.994064       -4.987149       -7.286673
  H           -0.968074       -4.952826       -6.472092
  H           -0.231449       -6.130464       -7.564328
  H           -2.014986       -4.226712       -8.818906
  H            0.330733       -1.090726       -7.301774
  H           -2.452230       -0.347995       -7.270346
  H            0.539596       -5.667895       -4.631527
  H            1.284040       -6.866673       -5.707893
  H           -0.423629       -7.015896       -5.259983
  H           -4.330837       -3.325300       -8.647885
  H           -4.524249       -2.204173       -7.275944
  H           -4.358001       -1.566803       -8.939819
