          40
  Built with Packmol                                             
  S           -0.004372       -0.782196        1.491805
  S           -0.004362       -0.782291       -1.491995
  F            1.222456        1.245943        2.541413
  F           -0.246716        0.283191        3.835006
  F           -0.910352        1.545772        2.184506
  F           -0.250190        0.283905       -3.834394
  F            1.223474        1.243752       -2.543987
  F           -0.907937        1.547380       -2.182294
  O           -1.363956       -1.283441        1.459000
  O            1.106755       -1.634760        1.864608
  O            1.106668       -1.634953       -1.864592
  O           -1.363946       -1.283436       -1.459000
  N            0.359407       -0.005181        0.000008
  C            0.016477        0.628103        2.551308
  C            0.016595        0.628212       -2.551392
  N            5.280142       -4.152259        5.738429
  N            5.890719       -2.095203        5.687432
  C            4.438504       -5.343823        5.691408
  C            3.881001       -5.725791        7.060846
  C            3.018937       -4.622954        7.676418
  C            4.835235       -2.908721        5.580127
  C            6.630993       -4.149235        5.950016
  C            7.021956       -2.840468        5.918127
  C            2.467916       -5.039930        9.031201
  C            5.840111       -0.652694        5.575744
  H            3.620548       -5.155972        4.985645
  H            5.029847       -6.172250        5.284496
  H            4.713391       -5.953286        7.737909
  H            3.288600       -6.642670        6.958440
  H            3.606754       -3.710351        7.818247
  H            2.187694       -4.379266        7.005073
  H            3.815666       -2.608321        5.394884
  H            7.133483       -5.085667        6.097264
  H            7.957202       -2.326263        6.028749
  H            3.278092       -5.256706        9.734712
  H            1.841800       -5.933372        8.941609
  H            1.855793       -4.237625        9.454708
  H            4.809806       -0.324405        5.414266
  H            6.219108       -0.205716        6.498857
  H            6.455923       -0.335393        4.729828
