          40
  Built with Packmol                                             
  S           -0.004372       -0.782196        1.491805
  S           -0.004362       -0.782291       -1.491995
  F            1.222456        1.245943        2.541413
  F           -0.246716        0.283191        3.835006
  F           -0.910352        1.545772        2.184506
  F           -0.250190        0.283905       -3.834394
  F            1.223474        1.243752       -2.543987
  F           -0.907937        1.547380       -2.182294
  O           -1.363956       -1.283441        1.459000
  O            1.106755       -1.634760        1.864608
  O            1.106668       -1.634953       -1.864592
  O           -1.363946       -1.283436       -1.459000
  N            0.359407       -0.005181        0.000008
  C            0.016477        0.628103        2.551308
  C            0.016595        0.628212       -2.551392
  N           -2.400621        0.869607       10.641510
  N           -0.958169       -0.675145       11.015625
  C           -3.585444        1.712247       10.770129
  C           -4.774554        1.182702        9.971587
  C           -5.202678       -0.218781       10.408498
  C           -2.111391       -0.151391       11.443569
  C           -1.432161        1.011740        9.686807
  C           -0.512710        0.029096        9.922945
  C           -6.396591       -0.710460        9.604910
  C           -0.289012       -1.809153       11.617390
  H           -3.841074        1.781114       11.834249
  H           -3.331232        2.724410       10.434781
  H           -4.513706        1.164582        8.906377
  H           -5.615116        1.877273       10.086132
  H           -4.384300       -0.931920       10.266447
  H           -5.457615       -0.216813       11.474357
  H           -2.692742       -0.493451       12.285650
  H           -1.530843        1.797544        8.963027
  H            0.407807       -0.273687        9.462184
  H           -6.159360       -0.755854        8.537218
  H           -7.258176       -0.048473        9.738068
  H           -6.686037       -1.714074        9.931595
  H           -0.875998       -2.188946       12.457974
  H           -0.177219       -2.600124       10.870776
  H            0.695092       -1.496921       11.977291
