          40
  Built with Packmol                                             
  S           -0.004372       -0.782196        1.491805
  S           -0.004362       -0.782291       -1.491995
  F            1.222456        1.245943        2.541413
  F           -0.246716        0.283191        3.835006
  F           -0.910352        1.545772        2.184506
  F           -0.250190        0.283905       -3.834394
  F            1.223474        1.243752       -2.543987
  F           -0.907937        1.547380       -2.182294
  O           -1.363956       -1.283441        1.459000
  O            1.106755       -1.634760        1.864608
  O            1.106668       -1.634953       -1.864592
  O           -1.363946       -1.283436       -1.459000
  N            0.359407       -0.005181        0.000008
  C            0.016477        0.628103        2.551308
  C            0.016595        0.628212       -2.551392
  N            2.696578        2.910819       -8.361698
  N            2.574384        0.768286       -8.400462
  C            2.417668        4.303391       -8.025032
  C            1.382088        4.937409       -8.951133
  C            0.034827        4.215049       -8.913486
  C            2.039222        1.868349       -7.861171
  C            3.663911        2.488546       -9.230909
  C            3.587868        1.124632       -9.257319
  C           -0.977177        4.879043       -9.834297
  C            2.146002       -0.585577       -8.118659
  H            2.072304        4.340215       -6.984931
  H            3.356122        4.867889       -8.071959
  H            1.766076        4.931419       -9.978537
  H            1.245808        5.986667       -8.663765
  H            0.148366        3.174014       -9.232615
  H           -0.356210        4.205769       -7.889740
  H            1.228794        1.899427       -7.149611
  H            4.278019        3.221697       -9.717164
  H            4.117885        0.346122       -9.771455
  H           -0.627915        4.871883      -10.871731
  H           -1.154232        5.917876       -9.538046
  H           -1.932726        4.347034       -9.793833
  H            1.306089       -0.575756       -7.418783
  H            1.832443       -1.066032       -9.049469
  H            2.977115       -1.141256       -7.675996
