          40
  Built with Packmol                                             
  S           -0.004372       -0.782196        1.491805
  S           -0.004362       -0.782291       -1.491995
  F            1.222456        1.245943        2.541413
  F           -0.246716        0.283191        3.835006
  F           -0.910352        1.545772        2.184506
  F           -0.250190        0.283905       -3.834394
  F            1.223474        1.243752       -2.543987
  F           -0.907937        1.547380       -2.182294
  O           -1.363956       -1.283441        1.459000
  O            1.106755       -1.634760        1.864608
  O            1.106668       -1.634953       -1.864592
  O           -1.363946       -1.283436       -1.459000
  N            0.359407       -0.005181        0.000008
  C            0.016477        0.628103        2.551308
  C            0.016595        0.628212       -2.551392
  N           -4.172508       -3.628195       -4.472539
  N           -5.524494       -5.292700       -4.564420
  C           -3.556523       -2.371533       -4.058107
  C           -4.102264       -1.167540       -4.822722
  C           -5.608601       -0.982184       -4.635838
  C           -5.268788       -4.146390       -3.925701
  C           -3.711967       -4.439880       -5.471862
  C           -4.571366       -5.500315       -5.532294
  C           -6.117359        0.232033       -5.397267
  C           -6.636227       -6.173305       -4.273813
  H           -3.724980       -2.247857       -2.981646
  H           -2.473255       -2.448787       -4.206827
  H           -3.883536       -1.289704       -5.890560
  H           -3.575594       -0.266601       -4.486535
  H           -6.151558       -1.860156       -5.000323
  H           -5.842242       -0.867986       -3.571215
  H           -5.844321       -3.726565       -3.115402
  H           -2.829855       -4.149259       -6.008984
  H           -4.641477       -6.385250       -6.135042
  H           -5.928219        0.129917       -6.470628
  H           -5.628944        1.147083       -5.047379
  H           -7.196033        0.346143       -5.251712
  H           -7.248975       -5.752583       -3.471997
  H           -7.249422       -6.288810       -5.171707
  H           -6.251286       -7.147257       -3.959621
