          40
  Built with Packmol                                             
  S           -0.004372       -0.782196        1.491805
  S           -0.004362       -0.782291       -1.491995
  F            1.222456        1.245943        2.541413
  F           -0.246716        0.283191        3.835006
  F           -0.910352        1.545772        2.184506
  F           -0.250190        0.283905       -3.834394
  F            1.223474        1.243752       -2.543987
  F           -0.907937        1.547380       -2.182294
  O           -1.363956       -1.283441        1.459000
  O            1.106755       -1.634760        1.864608
  O            1.106668       -1.634953       -1.864592
  O           -1.363946       -1.283436       -1.459000
  N            0.359407       -0.005181        0.000008
  C            0.016477        0.628103        2.551308
  C            0.016595        0.628212       -2.551392
  N            5.035511       -6.564979        1.452989
  N            2.912847       -6.765042        1.205692
  C            6.330280       -6.127258        1.965205
  C            6.860960       -4.889608        1.245019
  C            5.926663       -3.685784        1.372426
  C            3.861094       -6.148881        1.918817
  C            4.852002       -7.455728        0.431977
  C            3.501168       -7.584555        0.272625
  C            6.490233       -2.467392        0.657695
  C            1.488260       -6.590072        1.394920
  H            6.222732       -5.927323        3.038006
  H            7.043088       -6.953636        1.862439
  H            7.004091       -5.124422        0.183219
  H            7.845831       -4.636753        1.655124
  H            4.948799       -3.910747        0.934636
  H            5.767674       -3.445882        2.429886
  H            3.699054       -5.449265        2.724023
  H            5.714103       -7.878392       -0.046793
  H            2.866020       -8.150377       -0.381411
  H            6.627353       -2.667012       -0.409852
  H            7.457422       -2.177438        1.080494
  H            5.807093       -1.618462        0.759584
  H            1.301466       -5.863209        2.190001
  H            1.042462       -6.227494        0.464670
  H            1.041475       -7.548945        1.671371
