          40
  Built with Packmol                                             
  S           -0.004372       -0.782196        1.491805
  S           -0.004362       -0.782291       -1.491995
  F            1.222456        1.245943        2.541413
  F           -0.246716        0.283191        3.835006
  F           -0.910352        1.545772        2.184506
  F           -0.250190        0.283905       -3.834394
  F            1.223474        1.243752       -2.543987
  F           -0.907937        1.547380       -2.182294
  O           -1.363956       -1.283441        1.459000
  O            1.106755       -1.634760        1.864608
  O            1.106668       -1.634953       -1.864592
  O           -1.363946       -1.283436       -1.459000
  N            0.359407       -0.005181        0.000008
  C            0.016477        0.628103        2.551308
  C            0.016595        0.628212       -2.551392
  N            0.916569        4.057611       -8.933527
  N            0.547166        1.953856       -8.722249
  C            1.511666        5.378891       -8.758973
  C            0.857748        6.175384       -7.632004
  C            0.968189        5.479030       -6.275086
  C            1.328858        2.957163       -8.310294
  C           -0.138243        3.770461       -9.754801
  C           -0.375341        2.431493       -9.621793
  C            0.320970        6.303806       -5.173368
  C            0.662673        0.579155       -8.283245
  H            2.582239        5.247352       -8.561453
  H            1.424509        5.927860       -9.703744
  H           -0.200892        6.334571       -7.870718
  H            1.328549        7.164094       -7.578222
  H            0.470946        4.504097       -6.302325
  H            2.021771        5.305516       -6.028288
  H            2.143756        2.882380       -7.607140
  H           -0.580827        4.564294      -10.324917
  H           -1.079376        1.741079      -10.044869
  H           -0.742722        6.464081       -5.376289
  H            0.804537        7.281425       -5.080036
  H            0.409535        5.788225       -4.212079
  H            1.466889        0.485847       -7.548461
  H           -0.279864        0.265901       -7.826014
  H            0.886365       -0.056116       -9.144564
