          40
  Built with Packmol                                             
  S           -0.004372       -0.782196        1.491805
  S           -0.004362       -0.782291       -1.491995
  F            1.222456        1.245943        2.541413
  F           -0.246716        0.283191        3.835006
  F           -0.910352        1.545772        2.184506
  F           -0.250190        0.283905       -3.834394
  F            1.223474        1.243752       -2.543987
  F           -0.907937        1.547380       -2.182294
  O           -1.363956       -1.283441        1.459000
  O            1.106755       -1.634760        1.864608
  O            1.106668       -1.634953       -1.864592
  O           -1.363946       -1.283436       -1.459000
  N            0.359407       -0.005181        0.000008
  C            0.016477        0.628103        2.551308
  C            0.016595        0.628212       -2.551392
  N           -1.548695       -1.032022        9.568421
  N           -2.637698        0.418589       10.715889
  C           -0.881692       -2.273696        9.189284
  C            0.597608       -2.287318        9.568170
  C            0.823877       -2.127657       11.072047
  C           -2.146436       -0.824602       10.738493
  C           -1.650544        0.080528        8.780108
  C           -2.343445        1.005578        9.508745
  C            2.304647       -2.159980       11.417310
  C           -3.366554        1.041635       11.800532
  H           -1.407175       -3.104973        9.674347
  H           -0.991522       -2.411938        8.107442
  H            1.112727       -1.477124        9.037811
  H            1.041584       -3.229865        9.226727
  H            0.417080       -1.173546       11.422296
  H            0.306283       -2.926533       11.615134
  H           -2.226573       -1.526481       11.553981
  H           -1.211305        0.062852        7.801415
  H           -2.673208        2.012228        9.337740
  H            2.842689       -1.349782       10.914921
  H            2.756442       -3.110866       11.117334
  H            2.444929       -2.043059       12.496382
  H           -3.436167        0.355701       12.649075
  H           -2.842110        1.948515       12.113727
  H           -4.373753        1.294863       11.458620
