          40
  Built with Packmol                                             
  S           -0.004372       -0.782196        1.491805
  S           -0.004362       -0.782291       -1.491995
  F            1.222456        1.245943        2.541413
  F           -0.246716        0.283191        3.835006
  F           -0.910352        1.545772        2.184506
  F           -0.250190        0.283905       -3.834394
  F            1.223474        1.243752       -2.543987
  F           -0.907937        1.547380       -2.182294
  O           -1.363956       -1.283441        1.459000
  O            1.106755       -1.634760        1.864608
  O            1.106668       -1.634953       -1.864592
  O           -1.363946       -1.283436       -1.459000
  N            0.359407       -0.005181        0.000008
  C            0.016477        0.628103        2.551308
  C            0.016595        0.628212       -2.551392
  N           -7.702455       -1.270187       -3.872282
  N           -6.893104       -3.162616       -4.481008
  C           -7.784134        0.125180       -3.451959
  C           -7.742558        0.286655       -1.933978
  C           -6.458105       -0.266895       -1.315838
  C           -6.567375       -1.915215       -4.127078
  C           -8.772295       -2.100569       -4.060648
  C           -8.259356       -3.306178       -4.448130
  C           -6.441650       -0.077684        0.193088
  C           -5.945599       -4.195886       -4.842194
  H           -6.953701        0.670383       -3.916261
  H           -8.711602        0.554670       -3.848061
  H           -8.605583       -0.227214       -1.493333
  H           -7.840811        1.350713       -1.688579
  H           -6.363378       -1.337866       -1.522080
  H           -5.586557        0.232156       -1.754477
  H           -5.569088       -1.510577       -4.065715
  H           -9.760112       -1.718076       -3.890356
  H           -8.678033       -4.259237       -4.708358
  H           -7.283756       -0.595770        0.662929
  H           -6.500633        0.983355        0.455778
  H           -5.516145       -0.480973        0.615632
  H           -4.924334       -3.814117       -4.760663
  H           -6.065710       -5.047647       -4.167183
  H           -6.131340       -4.510194       -5.872819
