          40
  Built with Packmol                                             
  S           -0.004372       -0.782196        1.491805
  S           -0.004362       -0.782291       -1.491995
  F            1.222456        1.245943        2.541413
  F           -0.246716        0.283191        3.835006
  F           -0.910352        1.545772        2.184506
  F           -0.250190        0.283905       -3.834394
  F            1.223474        1.243752       -2.543987
  F           -0.907937        1.547380       -2.182294
  O           -1.363956       -1.283441        1.459000
  O            1.106755       -1.634760        1.864608
  O            1.106668       -1.634953       -1.864592
  O           -1.363946       -1.283436       -1.459000
  N            0.359407       -0.005181        0.000008
  C            0.016477        0.628103        2.551308
  C            0.016595        0.628212       -2.551392
  N           -4.812555       -3.341159        6.697787
  N           -2.969402       -4.246190        6.072817
  C           -6.235462       -3.144152        6.956470
  C           -6.963344       -2.493989        5.781931
  C           -6.877256       -3.324294        4.500715
  C           -4.290964       -4.434039        6.147385
  C           -3.827036       -2.437250        6.982876
  C           -2.652552       -3.011298        6.585638
  C           -7.623432       -2.657325        3.355592
  C           -2.025419       -5.202363        5.533839
  H           -6.678656       -4.120443        7.186419
  H           -6.343862       -2.523061        7.853159
  H           -6.535124       -1.501120        5.597859
  H           -8.014772       -2.346221        6.055352
  H           -5.833810       -3.450669        4.194550
  H           -7.293923       -4.323088        4.673490
  H           -4.828824       -5.311846        5.824527
  H           -4.097977       -1.501003        7.431335
  H           -1.622072       -2.712368        6.594669
  H           -7.205433       -1.669457        3.137192
  H           -8.684331       -2.536356        3.596728
  H           -7.548704       -3.265844        2.449023
  H           -2.553329       -6.090221        5.175516
  H           -1.484612       -4.745254        4.700686
  H           -1.321266       -5.493997        6.317802
