          40
  Built with Packmol                                             
  S           -0.004372       -0.782196        1.491805
  S           -0.004362       -0.782291       -1.491995
  F            1.222456        1.245943        2.541413
  F           -0.246716        0.283191        3.835006
  F           -0.910352        1.545772        2.184506
  F           -0.250190        0.283905       -3.834394
  F            1.223474        1.243752       -2.543987
  F           -0.907937        1.547380       -2.182294
  O           -1.363956       -1.283441        1.459000
  O            1.106755       -1.634760        1.864608
  O            1.106668       -1.634953       -1.864592
  O           -1.363946       -1.283436       -1.459000
  N            0.359407       -0.005181        0.000008
  C            0.016477        0.628103        2.551308
  C            0.016595        0.628212       -2.551392
  N           -4.516038        0.489630        4.879559
  N           -6.624455        0.156861        4.654331
  C           -3.194980        0.610252        5.488367
  C           -2.904327        2.022920        5.990322
  C           -3.902767        2.490600        7.049910
  C           -5.624265        0.168368        5.541384
  C           -4.795060        0.688564        3.555872
  C           -6.137037        0.477378        3.410133
  C           -3.577245        3.893422        7.538843
  C           -8.005007       -0.148071        4.965717
  H           -3.133323       -0.108145        6.314530
  H           -2.442102        0.314353        4.748654
  H           -2.926176        2.718121        5.142229
  H           -1.889054        2.049698        6.403357
  H           -4.918319        2.503496        6.641283
  H           -3.897665        1.798872        7.899932
  H           -5.705017       -0.047934        6.595314
  H           -3.994989        0.956992        2.893365
  H           -6.824133        0.510464        2.586643
  H           -3.609005        4.613551        6.715003
  H           -2.580332        3.929991        7.989525
  H           -4.303097        4.209447        8.294497
  H           -8.114134       -0.344510        6.035708
  H           -8.633538        0.703364        4.690815
  H           -8.313550       -1.033740        4.403693
