40

S -1.062694 1.071103 3.591938
S 1.618469 1.626402 4.300323
F -1.430130 1.874725 6.105697
F -3.242240 1.186020 5.063323
F -1.777007 -0.259618 5.726286
F 3.742710 1.413412 5.935081
F 2.142724 0.241415 6.610186
F 3.298906 -0.422126 4.841583
O -1.672055 0.055742 2.687382
O -1.107826 2.473330 3.209028
O 1.073869 2.731960 5.087249
O 2.396756 1.981948 3.116576
N 0.417512 0.551260 3.872570
C -1.945143 0.966605 5.238530
C 2.728158 0.605429 5.471564
N 1.395887 0.000000 -0.000000
N 0.670541 2.029042 0.166920
C 2.265943 -1.141476 0.120977
C 2.270456 -1.920488 1.472057
C 1.053237 -2.803014 1.814002
C 1.824073 1.296170 -0.000000
C 0.000000 0.000000 -0.000000
C -0.476256 1.272693 0.132408
C 1.151168 -3.611344 3.195311
C 0.682075 3.438473 0.519018
H 3.277701 -0.829033 -0.145528
H 1.912763 -1.893825 -0.595706
H 3.179914 -2.522275 1.518314
H 2.291232 -1.314777 2.388999
H 0.816757 -3.462296 0.969181
H 0.257113 -2.054123 1.894300
H 2.783535 1.677425 0.299295
H -0.594318 -0.870427 0.211763
H -1.467669 1.611777 0.372456
H 0.215920 -4.117712 3.477273
H 1.870424 -4.433517 3.126011
H 1.380055 -2.995380 4.071210
H 0.013755 3.668123 1.351549
H 0.426109 4.046342 -0.356583
H 1.630075 3.809396 0.933038
