40

S 1.775403 1.261819 3.693868
S 4.439088 1.871340 3.348669
F 0.943292 1.450087 6.109783
F 0.778994 -0.557748 5.328629
F 2.801789 0.281156 5.925152
F 6.808669 3.088088 3.721645
F 5.120872 4.424191 3.996911
F 5.393877 2.941130 5.493273
O 2.178652 0.130475 2.893899
O 0.600726 2.039823 3.312756
O 4.432249 2.065336 1.873942
O 4.834188 0.564684 3.883691
N 2.942220 2.314266 3.879048
C 1.537906 0.496258 5.378864
C 5.474206 3.139199 4.127105
N 1.374336 0.000000 -0.000000
N 0.628376 2.036371 0.307956
C 2.207029 -1.207044 -0.290805
C 3.726162 -0.915169 -0.396836
C 4.583304 -2.216420 -0.209073
C 1.786608 1.390335 -0.000000
C 0.000000 0.000000 -0.000000
C -0.458403 1.278099 0.349612
C 6.125575 -1.892135 -0.180145
C 0.612368 3.485877 0.440528
H 1.947413 -1.868804 -1.134353
H 2.072855 -1.796962 0.622975
H 4.024343 -0.445808 -1.336458
H 4.029436 -0.182778 0.355579
H 4.503556 -2.936838 -1.038252
H 4.371274 -2.734415 0.734126
H 2.810666 1.720766 -0.014851
H -0.533348 -0.936620 0.082963
H -1.416247 1.697561 0.606490
H 6.473816 -1.091371 -0.838936
H 6.302242 -1.504699 0.832418
H 6.677405 -2.836298 -0.252523
H 0.477903 3.982690 -0.524871
H 1.542854 3.757097 0.951641
H -0.158331 3.858260 1.141209
