40

S 1.847102 -0.866675 3.705022
S 3.332609 1.660122 3.547973
F 0.876209 -2.069091 5.953169
F 3.086762 -1.922078 5.843425
F 1.894229 -0.192118 6.255013
F 5.175641 3.114536 4.831295
F 4.672736 1.187403 5.832616
F 5.865912 1.187455 4.084780
O 1.975702 -2.128595 2.894578
O 0.607513 -0.162141 3.480853
O 2.207340 2.279014 4.203290
O 3.705414 2.199562 2.246850
N 3.168806 -0.021726 3.468255
C 1.923291 -1.332275 5.496198
C 4.805906 1.798356 4.671711
N 1.400464 0.000000 0.000000
N 0.672277 2.022877 0.352579
C 2.309948 -1.093685 -0.358319
C 3.819019 -0.806112 -0.131809
C 4.833326 -1.899349 -0.486654
C 1.771770 1.293148 0.000000
C 0.000000 0.000000 -0.000000
C -0.470058 1.239096 0.494556
C 4.866101 -2.915141 0.641572
C 0.698697 3.523394 0.484686
H 2.059746 -1.437805 -1.371373
H 2.090521 -1.930963 0.325579
H 4.117278 0.050522 -0.750048
H 3.806666 -0.544900 0.926971
H 5.778370 -1.373501 -0.687342
H 4.581124 -2.418204 -1.416860
H 2.795787 1.635628 -0.055640
H -0.635147 -0.829345 -0.273816
H -1.437095 1.666245 0.717905
H 5.474685 -2.421053 1.414684
H 3.850866 -3.081741 1.014054
H 5.406422 -3.841272 0.433400
H -0.314467 3.909346 0.665903
H 1.013878 3.951783 -0.473877
H 1.334129 3.976521 1.258961
