40

S 2.156386 1.132370 3.522434
S 3.932208 2.955860 2.406665
F 2.933553 2.503415 5.881342
F 3.430674 0.410960 5.768621
F 1.364859 1.026696 6.130943
F 6.312743 1.966127 1.794387
F 5.970074 2.073703 4.058875
F 6.611071 3.854461 2.738790
O 1.159202 2.146552 3.186638
O 1.773020 -0.272484 3.283025
O 3.703155 3.317080 1.028893
O 3.403496 3.879083 3.442533
N 3.457712 1.414897 2.657837
C 2.503327 1.306505 5.409418
C 5.785712 2.727200 2.794141
N 1.427620 0.000000 0.000000
N 0.830963 2.086016 -0.078985
C 2.201215 -1.192288 -0.231731
C 2.511452 -2.075438 0.979012
C 3.386404 -3.317133 0.569557
C 1.922710 1.276787 -0.000000
C 0.000000 0.000000 0.000000
C -0.296718 1.348386 -0.003899
C 3.518933 -4.264443 1.733362
C 0.814012 3.610539 -0.085393
H 1.594822 -1.675517 -1.014340
H 3.153990 -0.900939 -0.681438
H 1.633207 -2.535727 1.426473
H 3.205964 -1.573981 1.667266
H 2.893836 -3.787559 -0.292925
H 4.388351 -2.937785 0.341747
H 2.940347 1.636501 -0.055856
H -0.551267 -0.921667 0.053234
H -1.225956 1.901693 0.071375
H 4.071040 -3.781937 2.549919
H 4.028102 -5.212513 1.517006
H 2.546055 -4.629686 2.087489
H 1.648758 3.952825 -0.713915
H -0.033622 3.954257 -0.682363
H 0.875583 4.047038 0.914896
