40

S -1.395719 1.591627 3.587087
S 1.084504 0.654212 4.063159
F -3.268261 2.391052 5.551319
F -1.184286 2.342094 6.215888
F -2.349220 0.534536 6.035167
F 3.145458 2.218273 4.803484
F 3.027260 0.495740 5.959257
F 1.578520 2.154539 6.313995
O -2.081385 2.542035 2.760597
O -1.761393 0.221590 3.164379
O 0.361142 -0.437623 4.820816
O 1.852686 0.279160 2.849390
N 0.136184 1.908049 3.574815
C -2.094622 1.710564 5.451782
C 2.247064 1.393358 5.351575
N 1.390036 0.000000 0.000000
N 0.733506 2.012783 0.435972
C 2.302962 -1.204552 -0.149401
C 1.985128 -2.417190 0.682098
C 3.031576 -3.577470 0.512401
C 1.812759 1.277500 0.000000
C 0.000000 0.000000 0.000000
C -0.394378 1.290500 0.309155
C 2.516985 -4.886019 1.224788
C 0.748038 3.423161 0.740477
H 2.276632 -1.376896 -1.230652
H 3.343295 -0.955059 0.089682
H 1.038678 -2.771956 0.264399
H 1.714848 -2.118126 1.699600
H 3.347036 -3.770935 -0.519518
H 3.939251 -3.245254 1.024904
H 2.825395 1.570365 0.254948
H -0.613725 -0.878250 -0.094963
H -1.379605 1.652204 0.543886
H 2.468641 -4.805677 2.313737
H 3.316101 -5.613146 1.052742
H 1.575787 -5.175752 0.751925
H 1.785206 3.674719 1.012511
H 0.431787 4.083112 -0.077845
H 0.092516 3.580347 1.599362
