          40
  Built with Packmol                                             
  S           -0.004372       -0.782196        1.491805
  S           -0.004362       -0.782291       -1.491995
  F            1.222456        1.245943        2.541413
  F           -0.246716        0.283191        3.835006
  F           -0.910352        1.545772        2.184506
  F           -0.250190        0.283905       -3.834394
  F            1.223474        1.243752       -2.543987
  F           -0.907937        1.547380       -2.182294
  O           -1.363956       -1.283441        1.459000
  O            1.106755       -1.634760        1.864608
  O            1.106668       -1.634953       -1.864592
  O           -1.363946       -1.283436       -1.459000
  N            0.359407       -0.005181        0.000008
  C            0.016477        0.628103        2.551308
  C            0.016595        0.628212       -2.551392
  N            3.230822       -0.276925        7.307419
  N            2.708294       -1.783384        8.744232
  C            3.919119        0.417066        6.223438
  C            5.076395        1.281744        6.718525
  C            6.147752        0.472412        7.450311
  C            3.558356       -1.485488        7.756292
  C            2.163154        0.214987        8.005761
  C            1.828815       -0.742473        8.921310
  C            7.291573        1.359404        7.917054
  C            2.719833       -3.015483        9.504275
  H            4.282054       -0.335277        5.513016
  H            3.190675        1.038065        5.689316
  H            4.686059        2.055042        7.391347
  H            5.525231        1.796810        5.861002
  H            5.722386       -0.019905        8.330751
  H            6.540188       -0.310584        6.791552
  H            4.356347       -2.113382        7.391552
  H            1.785047        1.187309        7.755345
  H            1.080002       -0.832234        9.684561
  H            6.933812        2.131607        8.605543
  H            7.776409        1.852758        7.068630
  H            8.045871        0.762174        8.438681
  H            3.539378       -3.656415        9.168226
  H            2.855922       -2.784381       10.564292
  H            1.770632       -3.537887        9.357339
