          40
  Built with Packmol                                             
  S           -0.004372       -0.782196        1.491805
  S           -0.004362       -0.782291       -1.491995
  F            1.222456        1.245943        2.541413
  F           -0.246716        0.283191        3.835006
  F           -0.910352        1.545772        2.184506
  F           -0.250190        0.283905       -3.834394
  F            1.223474        1.243752       -2.543987
  F           -0.907937        1.547380       -2.182294
  O           -1.363956       -1.283441        1.459000
  O            1.106755       -1.634760        1.864608
  O            1.106668       -1.634953       -1.864592
  O           -1.363946       -1.283436       -1.459000
  N            0.359407       -0.005181        0.000008
  C            0.016477        0.628103        2.551308
  C            0.016595        0.628212       -2.551392
  N            5.066658        1.341524        1.194441
  N            6.726500        2.598351        0.672718
  C            3.982162        0.734172        1.959544
  C            4.436166       -0.485027        2.759234
  C            5.533410       -0.152804        3.771170
  C            5.864996        2.302425        1.651295
  C            5.409352        1.009636       -0.086959
  C            6.466128        1.808528       -0.421230
  C            5.952309       -1.383640        4.560156
  C            7.769264        3.598720        0.760881
  H            3.568583        1.497271        2.629673
  H            3.183087        0.449228        1.265395
  H            4.803697       -1.252929        2.067649
  H            3.569802       -0.908633        3.280833
  H            6.419846        0.238478        3.261644
  H            5.182116        0.620767        4.463437
  H            5.825517        2.763096        2.626128
  H            4.851471        0.243275       -0.589495
  H            7.078704        1.928713       -1.293948
  H            6.340858       -2.162238        3.895987
  H            5.106695       -1.798023        5.118287
  H            6.738022       -1.125222        5.276828
  H            7.764272        4.060104        1.752081
  H            8.739629        3.124572        0.590180
  H            7.594320        4.368573        0.004442
