          40
  Built with Packmol                                             
  S           -0.004372       -0.782196        1.491805
  S           -0.004362       -0.782291       -1.491995
  F            1.222456        1.245943        2.541413
  F           -0.246716        0.283191        3.835006
  F           -0.910352        1.545772        2.184506
  F           -0.250190        0.283905       -3.834394
  F            1.223474        1.243752       -2.543987
  F           -0.907937        1.547380       -2.182294
  O           -1.363956       -1.283441        1.459000
  O            1.106755       -1.634760        1.864608
  O            1.106668       -1.634953       -1.864592
  O           -1.363946       -1.283436       -1.459000
  N            0.359407       -0.005181        0.000008
  C            0.016477        0.628103        2.551308
  C            0.016595        0.628212       -2.551392
  N            0.548647       -1.205269      -10.499995
  N            2.625853       -1.564241      -10.904021
  C           -0.811253       -0.688439      -10.618104
  C           -1.012746        0.619471       -9.855976
  C           -0.091352        1.737040      -10.346291
  C            1.543074       -0.906812      -11.331515
  C            0.985082       -2.060460       -9.526471
  C            2.307508       -2.290317       -9.781610
  C           -0.326932        3.028176       -9.577917
  C            3.928593       -1.513431      -11.533430
  H           -1.031008       -0.546908      -11.683054
  H           -1.506733       -1.449152      -10.245035
  H           -0.832337        0.445577       -8.788149
  H           -2.058546        0.931912       -9.959789
  H            0.958171        1.454197      -10.215952
  H           -0.255054        1.914920      -11.415222
  H            1.489570       -0.259944      -12.193359
  H            0.290408       -2.390030       -8.778211
  H            3.078150       -2.875087       -9.317406
  H           -0.136835        2.889103       -8.508885
  H           -1.357603        3.375554       -9.701747
  H            0.342099        3.813775       -9.942576
  H            3.903418       -0.840967      -12.395134
  H            4.663749       -1.145945      -10.812276
  H            4.206195       -2.516783      -11.867647
