          40
  Built with Packmol                                             
  S           -0.004372       -0.782196        1.491805
  S           -0.004362       -0.782291       -1.491995
  F            1.222456        1.245943        2.541413
  F           -0.246716        0.283191        3.835006
  F           -0.910352        1.545772        2.184506
  F           -0.250190        0.283905       -3.834394
  F            1.223474        1.243752       -2.543987
  F           -0.907937        1.547380       -2.182294
  O           -1.363956       -1.283441        1.459000
  O            1.106755       -1.634760        1.864608
  O            1.106668       -1.634953       -1.864592
  O           -1.363946       -1.283436       -1.459000
  N            0.359407       -0.005181        0.000008
  C            0.016477        0.628103        2.551308
  C            0.016595        0.628212       -2.551392
  N           -5.089692       -0.508844       -8.135335
  N           -5.758058        1.318270       -7.228787
  C           -5.066194       -1.894593       -8.593087
  C           -4.475835       -2.847677       -7.556181
  C           -5.257998       -2.849380       -6.242198
  C           -6.100254        0.049493       -7.474719
  C           -4.084685        0.399588       -8.320506
  C           -4.507971        1.563694       -7.743943
  C           -4.653822       -3.818225       -5.237588
  C           -6.584013        2.278489       -6.527613
  H           -6.092902       -2.189331       -8.840962
  H           -4.484685       -1.945243       -9.520901
  H           -3.435564       -2.563108       -7.356435
  H           -4.458362       -3.860386       -7.975955
  H           -5.254336       -1.851495       -5.791976
  H           -6.302524       -3.123501       -6.428947
  H           -7.026296       -0.426713       -7.192318
  H           -3.197908        0.091100       -8.839684
  H           -4.091464        2.545370       -7.624926
  H           -3.618841       -3.547954       -5.005049
  H           -4.663247       -4.841773       -5.625595
  H           -5.226519       -3.803492       -4.305093
  H           -7.517985        1.808235       -6.208342
  H           -6.046265        2.642923       -5.648079
  H           -6.811333        3.113518       -7.195842
