          40
  Built with Packmol                                             
  S           -0.004372       -0.782196        1.491805
  S           -0.004362       -0.782291       -1.491995
  F            1.222456        1.245943        2.541413
  F           -0.246716        0.283191        3.835006
  F           -0.910352        1.545772        2.184506
  F           -0.250190        0.283905       -3.834394
  F            1.223474        1.243752       -2.543987
  F           -0.907937        1.547380       -2.182294
  O           -1.363956       -1.283441        1.459000
  O            1.106755       -1.634760        1.864608
  O            1.106668       -1.634953       -1.864592
  O           -1.363946       -1.283436       -1.459000
  N            0.359407       -0.005181        0.000008
  C            0.016477        0.628103        2.551308
  C            0.016595        0.628212       -2.551392
  N            8.233237       -1.903531        2.024435
  N            6.696848       -3.368482        1.707711
  C            8.979855       -0.788276        2.598158
  C            8.607341        0.554056        1.972500
  C            7.128263        0.898878        2.150711
  C            7.065233       -2.344120        2.483823
  C            8.627604       -2.643527        0.944409
  C            7.650774       -3.576845        0.740784
  C            6.793555        2.246402        1.530162
  C            5.479106       -4.134590        1.869110
  H            8.790923       -0.771063        3.678181
  H           10.050669       -0.979343        2.462484
  H            8.846045        0.531194        0.902201
  H            9.225690        1.338689        2.424263
  H            6.497441        0.142163        1.673286
  H            6.873922        0.916082        3.216575
  H            6.516573       -1.954341        3.327103
  H            9.555698       -2.402242        0.463258
  H            7.496416       -4.370414        0.035269
  H            7.005470        2.247555        0.456199
  H            7.375157        3.048019        1.996464
  H            5.731790        2.473606        1.667193
  H            4.893911       -3.738398        2.703349
  H            4.887303       -4.069118        0.952025
  H            5.734662       -5.178138        2.072032
