          40
  Built with Packmol                                             
  S           -0.004372       -0.782196        1.491805
  S           -0.004362       -0.782291       -1.491995
  F            1.222456        1.245943        2.541413
  F           -0.246716        0.283191        3.835006
  F           -0.910352        1.545772        2.184506
  F           -0.250190        0.283905       -3.834394
  F            1.223474        1.243752       -2.543987
  F           -0.907937        1.547380       -2.182294
  O           -1.363956       -1.283441        1.459000
  O            1.106755       -1.634760        1.864608
  O            1.106668       -1.634953       -1.864592
  O           -1.363946       -1.283436       -1.459000
  N            0.359407       -0.005181        0.000008
  C            0.016477        0.628103        2.551308
  C            0.016595        0.628212       -2.551392
  N            3.990135        3.949168        3.559267
  N            5.321709        3.007802        4.954840
  C            3.269879        4.980911        2.819586
  C            1.950588        5.369336        3.483413
  C            2.139954        5.917435        4.898355
  C            4.880100        4.191553        4.517702
  C            3.850927        2.602022        3.371126
  C            4.697729        2.000582        4.258785
  C            0.810451        6.307972        5.525120
  C            6.306212        2.825096        6.000422
  H            3.924188        5.856357        2.730618
  H            3.083197        4.614930        1.803336
  H            1.294312        4.491328        3.521456
  H            1.449179        6.120191        2.861400
  H            2.607773        5.165457        5.541909
  H            2.801857        6.790607        4.875841
  H            5.193590        5.160007        4.875330
  H            3.161842        2.252273        2.626868
  H            4.948228        0.984972        4.497775
  H            0.139755        5.445456        5.592487
  H            0.312998        7.085478        4.936636
  H            0.967510        6.696009        6.536309
  H            6.618276        3.795345        6.396161
  H            5.869124        2.231454        6.807954
  H            7.176712        2.307301        5.588602
