          40
  Built with Packmol                                             
  S           -0.004372       -0.782196        1.491805
  S           -0.004362       -0.782291       -1.491995
  F            1.222456        1.245943        2.541413
  F           -0.246716        0.283191        3.835006
  F           -0.910352        1.545772        2.184506
  F           -0.250190        0.283905       -3.834394
  F            1.223474        1.243752       -2.543987
  F           -0.907937        1.547380       -2.182294
  O           -1.363956       -1.283441        1.459000
  O            1.106755       -1.634760        1.864608
  O            1.106668       -1.634953       -1.864592
  O           -1.363946       -1.283436       -1.459000
  N            0.359407       -0.005181        0.000008
  C            0.016477        0.628103        2.551308
  C            0.016595        0.628212       -2.551392
  N            1.922870        0.764863      -11.304606
  N           -0.165534        0.269993      -11.281039
  C            3.368738        0.642270      -11.462182
  C            4.064251        0.184821      -10.181920
  C            3.574057       -1.180663       -9.698707
  C            1.054336       -0.217042      -11.530212
  C            1.266489        1.896361      -10.906545
  C           -0.063420        1.583579      -10.890651
  C            4.295768       -1.613291       -8.431861
  C           -1.398378       -0.478483      -11.406527
  H            3.564245       -0.065936      -12.276223
  H            3.768343        1.612884      -11.778061
  H            3.894119        0.928720       -9.394067
  H            5.145227        0.146065      -10.361037
  H            2.501613       -1.148586       -9.481169
  H            3.729955       -1.932354      -10.480824
  H            1.285675       -1.218732      -11.857590
  H            1.839602        2.776002      -10.685514
  H           -0.964168        2.116188      -10.653354
  H            4.129035       -0.897068       -7.620979
  H            5.373916       -1.694244       -8.603124
  H            3.930154       -2.590771       -8.102309
  H           -1.184370       -1.506222      -11.712025
  H           -1.913249       -0.490201      -10.441989
  H           -2.032660       -0.003532      -12.159910
