          40
  Built with Packmol                                             
  S           -0.004372       -0.782196        1.491805
  S           -0.004362       -0.782291       -1.491995
  F            1.222456        1.245943        2.541413
  F           -0.246716        0.283191        3.835006
  F           -0.910352        1.545772        2.184506
  F           -0.250190        0.283905       -3.834394
  F            1.223474        1.243752       -2.543987
  F           -0.907937        1.547380       -2.182294
  O           -1.363956       -1.283441        1.459000
  O            1.106755       -1.634760        1.864608
  O            1.106668       -1.634953       -1.864592
  O           -1.363946       -1.283436       -1.459000
  N            0.359407       -0.005181        0.000008
  C            0.016477        0.628103        2.551308
  C            0.016595        0.628212       -2.551392
  N            1.250658       -2.599818        6.321292
  N            3.348106       -2.179681        6.144997
  C           -0.074942       -2.789938        6.901835
  C           -0.319062       -4.227727        7.354866
  C            0.678512       -4.689798        8.417726
  C            2.334088       -2.257251        7.012823
  C            1.559801       -2.746365        4.997460
  C            2.894862       -2.479495        4.882849
  C            0.399395       -6.118680        8.857408
  C            4.710245       -1.832021        6.490798
  H           -0.178576       -2.100658        7.748354
  H           -0.825977       -2.500056        6.157878
  H           -0.255726       -4.894675        6.486413
  H           -1.339447       -4.306279        7.748233
  H            1.700640       -4.650999        8.027553
  H            0.632008       -4.025737        9.288307
  H            2.388335       -2.071133        8.074187
  H            0.782210       -3.024344        4.312506
  H            3.596713       -2.460441        4.071447
  H            0.473186       -6.810907        8.012610
  H           -0.602912       -6.207487        9.288433
  H            1.123936       -6.430198        9.616183
  H            4.793339       -1.665161        7.568123
  H            5.375978       -2.649740        6.201488
  H            4.993733       -0.918021        5.961916
