          40
  Built with Packmol                                             
  S           -0.004372       -0.782196        1.491805
  S           -0.004362       -0.782291       -1.491995
  F            1.222456        1.245943        2.541413
  F           -0.246716        0.283191        3.835006
  F           -0.910352        1.545772        2.184506
  F           -0.250190        0.283905       -3.834394
  F            1.223474        1.243752       -2.543987
  F           -0.907937        1.547380       -2.182294
  O           -1.363956       -1.283441        1.459000
  O            1.106755       -1.634760        1.864608
  O            1.106668       -1.634953       -1.864592
  O           -1.363946       -1.283436       -1.459000
  N            0.359407       -0.005181        0.000008
  C            0.016477        0.628103        2.551308
  C            0.016595        0.628212       -2.551392
  N            2.944567       -1.014893       -8.815554
  N            4.414864        0.170294       -7.795534
  C            2.224475       -1.703026       -9.882481
  C            1.155541       -0.826971      -10.532079
  C            1.733240        0.441385      -11.161262
  C            4.052754       -0.300907       -8.993124
  C            2.582777       -1.008828       -7.496976
  C            3.517451       -0.254636       -6.845576
  C            0.646370        1.283375      -11.811415
  C            5.575537        0.999214       -7.547345
  H            2.955612       -2.030680      -10.631162
  H            1.764488       -2.606596       -9.465913
  H            0.410647       -0.548016       -9.776857
  H            0.634522       -1.413784      -11.297770
  H            2.226579        1.056307      -10.401674
  H            2.486406        0.176887      -11.912149
  H            4.568917       -0.134416       -9.925825
  H            1.701980       -1.544581       -7.199913
  H            3.673564        0.044641       -5.827051
  H           -0.103675        1.591990      -11.076233
  H            0.140406        0.725114      -12.605539
  H            1.079675        2.185664      -12.253983
  H            6.099187        1.202775       -8.485285
  H            5.254998        1.945090       -7.102220
  H            6.250851        0.477512       -6.863783
