          40
  Built with Packmol                                             
  S           -0.004372       -0.782196        1.491805
  S           -0.004362       -0.782291       -1.491995
  F            1.222456        1.245943        2.541413
  F           -0.246716        0.283191        3.835006
  F           -0.910352        1.545772        2.184506
  F           -0.250190        0.283905       -3.834394
  F            1.223474        1.243752       -2.543987
  F           -0.907937        1.547380       -2.182294
  O           -1.363956       -1.283441        1.459000
  O            1.106755       -1.634760        1.864608
  O            1.106668       -1.634953       -1.864592
  O           -1.363946       -1.283436       -1.459000
  N            0.359407       -0.005181        0.000008
  C            0.016477        0.628103        2.551308
  C            0.016595        0.628212       -2.551392
  N           -0.930521        2.161398        8.161445
  N           -0.085073        1.912625       10.118538
  C           -1.059640        2.197434        6.708028
  C           -0.709280        3.562142        6.119056
  C            0.726923        3.987470        6.426872
  C            0.182179        1.830974        8.811143
  C           -1.926944        2.459859        9.048935
  C           -1.390864        2.302297       10.295744
  C            1.048149        5.342142        5.814817
  C            0.861521        1.631340       11.177172
  H           -0.407408        1.422237        6.288380
  H           -2.088878        1.929225        6.442907
  H           -1.401404        4.314444        6.516608
  H           -0.858826        3.527882        5.033443
  H            0.882151        4.060995        7.508068
  H            1.429245        3.239034        6.042635
  H            1.124543        1.545296        8.370220
  H           -2.888384        2.747517        8.669503
  H           -1.757829        2.414007       11.297836
  H            0.383044        6.117947        6.207332
  H            0.940771        5.315638        4.725756
  H            2.078531        5.628455        6.047373
  H            1.832837        1.365272       10.751579
  H            0.975397        2.519378       11.804855
  H            0.491176        0.796819       11.778751
