          40
  Built with Packmol                                             
  S           -0.004372       -0.782196        1.491805
  S           -0.004362       -0.782291       -1.491995
  F            1.222456        1.245943        2.541413
  F           -0.246716        0.283191        3.835006
  F           -0.910352        1.545772        2.184506
  F           -0.250190        0.283905       -3.834394
  F            1.223474        1.243752       -2.543987
  F           -0.907937        1.547380       -2.182294
  O           -1.363956       -1.283441        1.459000
  O            1.106755       -1.634760        1.864608
  O            1.106668       -1.634953       -1.864592
  O           -1.363946       -1.283436       -1.459000
  N            0.359407       -0.005181        0.000008
  C            0.016477        0.628103        2.551308
  C            0.016595        0.628212       -2.551392
  N            0.008832       -0.832171        8.535412
  N            1.339830        0.851272        8.498706
  C           -0.663708       -2.068699        8.149303
  C           -1.897098       -1.822845        7.283063
  C           -1.567786       -1.095368        5.978968
  C            0.977501       -0.250394        7.833556
  C           -0.261468       -0.106655        9.662417
  C            0.584730        0.965835        9.641087
  C           -2.813560       -0.879247        5.133822
  C            2.370397        1.774873        8.073544
  H            0.058559       -2.697157        7.614688
  H           -0.948135       -2.609456        9.059380
  H           -2.624872       -1.231620        7.852133
  H           -2.369387       -2.786459        7.058372
  H           -1.127575       -0.114840        6.186972
  H           -0.833835       -1.671572        5.404203
  H            1.398456       -0.600599        6.903916
  H           -1.026029       -0.454071       10.330124
  H            0.759107        1.806191       10.285079
  H           -3.552375       -0.275754        5.670714
  H           -3.277359       -1.834451        4.867810
  H           -2.556946       -0.356825        4.207016
  H            2.792584        1.452589        7.117894
  H            1.935991        2.771455        7.956582
  H            3.162702        1.801561        8.826550
