          40
  Built with Packmol                                             
  S           -0.004372       -0.782196        1.491805
  S           -0.004362       -0.782291       -1.491995
  F            1.222456        1.245943        2.541413
  F           -0.246716        0.283191        3.835006
  F           -0.910352        1.545772        2.184506
  F           -0.250190        0.283905       -3.834394
  F            1.223474        1.243752       -2.543987
  F           -0.907937        1.547380       -2.182294
  O           -1.363956       -1.283441        1.459000
  O            1.106755       -1.634760        1.864608
  O            1.106668       -1.634953       -1.864592
  O           -1.363946       -1.283436       -1.459000
  N            0.359407       -0.005181        0.000008
  C            0.016477        0.628103        2.551308
  C            0.016595        0.628212       -2.551392
  N            2.428276       -5.020855       -6.984528
  N            0.325972       -4.609283       -7.117984
  C            3.687124       -5.749471       -6.862830
  C            4.130108       -5.921990       -5.411599
  C            3.111967       -6.693108       -4.570706
  C            1.225908       -5.589763       -6.990908
  C            2.311552       -3.664100       -7.107685
  C            0.973788       -3.399698       -7.192660
  C            3.589115       -6.860131       -3.136355
  C           -1.107975       -4.801851       -7.168792
  H            3.562678       -6.727746       -7.342342
  H            4.457347       -5.210955       -7.427023
  H            4.292505       -4.933599       -4.964661
  H            5.093315       -6.445506       -5.395582
  H            2.153835       -6.164023       -4.547522
  H            2.933400       -7.680296       -5.011871
  H            1.012186       -6.644451       -6.913242
  H            3.202905       -3.067026       -7.116405
  H            0.382401       -2.510443       -7.296664
  H            3.743022       -5.887591       -2.658040
  H            4.532004       -7.414975       -3.098986
  H            2.846878       -7.412553       -2.551840
  H           -1.348305       -5.863342       -7.064604
  H           -1.575979       -4.245665       -6.351973
  H           -1.485962       -4.439583       -8.128670
