          40
  Built with Packmol                                             
  S           -0.004372       -0.782196        1.491805
  S           -0.004362       -0.782291       -1.491995
  F            1.222456        1.245943        2.541413
  F           -0.246716        0.283191        3.835006
  F           -0.910352        1.545772        2.184506
  F           -0.250190        0.283905       -3.834394
  F            1.223474        1.243752       -2.543987
  F           -0.907937        1.547380       -2.182294
  O           -1.363956       -1.283441        1.459000
  O            1.106755       -1.634760        1.864608
  O            1.106668       -1.634953       -1.864592
  O           -1.363946       -1.283436       -1.459000
  N            0.359407       -0.005181        0.000008
  C            0.016477        0.628103        2.551308
  C            0.016595        0.628212       -2.551392
  N            0.689946       -0.459970       10.142655
  N            0.319936        1.620066        9.763940
  C            1.329517       -1.684959       10.612489
  C            2.297684       -2.274068        9.588932
  C            3.433170       -1.315029        9.229420
  C            1.175745        0.763875       10.331306
  C           -0.487094       -0.401252        9.449326
  C           -0.724620        0.922218        9.206942
  C            4.386419       -1.936497        8.220447
  C            0.477417        3.059060        9.744859
  H            1.854985       -1.458207       11.547854
  H            0.548610       -2.415989       10.851940
  H            1.744400       -2.535465        8.678662
  H            2.714855       -3.204723        9.991355
  H            3.033936       -0.393979        8.792652
  H            3.989130       -1.038274       10.132397
  H            2.086565        1.022426       10.848639
  H           -0.998221       -1.316180        9.219679
  H           -1.498935        1.474352        8.710036
  H            3.864340       -2.192065        7.292856
  H            4.841906       -2.847683        8.621147
  H            5.189823       -1.234742        7.975857
  H            1.409625        3.341485       10.241448
  H            0.503336        3.405569        8.708122
  H           -0.363953        3.520165       10.269223
