          40
  Built with Packmol                                             
  S           -0.004372       -0.782196        1.491805
  S           -0.004362       -0.782291       -1.491995
  F            1.222456        1.245943        2.541413
  F           -0.246716        0.283191        3.835006
  F           -0.910352        1.545772        2.184506
  F           -0.250190        0.283905       -3.834394
  F            1.223474        1.243752       -2.543987
  F           -0.907937        1.547380       -2.182294
  O           -1.363956       -1.283441        1.459000
  O            1.106755       -1.634760        1.864608
  O            1.106668       -1.634953       -1.864592
  O           -1.363946       -1.283436       -1.459000
  N            0.359407       -0.005181        0.000008
  C            0.016477        0.628103        2.551308
  C            0.016595        0.628212       -2.551392
  N            3.877008        0.168011        7.063880
  N            5.776298       -0.823196        6.933148
  C            2.793578        1.113764        6.814638
  C            2.868923        2.346187        7.713262
  C            4.167504        3.132594        7.530000
  C            5.053181        0.188815        6.442934
  C            3.833427       -0.861535        7.962607
  C            5.041780       -1.493990        7.881227
  C            4.204700        4.360011        8.427214
  C            7.124373       -1.154083        6.521958
  H            2.834162        1.408429        5.759191
  H            1.838610        0.597793        6.967497
  H            2.781078        2.033886        8.761018
  H            2.011732        2.994671        7.496957
  H            5.032361        2.508484        7.776974
  H            4.272357        3.443204        6.484256
  H            5.367487        0.886484        5.682312
  H            2.942486       -1.003846        8.543172
  H            5.489855       -2.337458        8.370228
  H            4.136487        4.077132        9.482502
  H            3.376255        5.037997        8.198519
  H            5.141190        4.907426        8.282065
  H            7.473003       -0.441743        5.769359
  H            7.787181       -1.112195        7.390575
  H            7.133840       -2.161152        6.096282
