          40
  Built with Packmol                                             
  S           -0.004372       -0.782196        1.491805
  S           -0.004362       -0.782291       -1.491995
  F            1.222456        1.245943        2.541413
  F           -0.246716        0.283191        3.835006
  F           -0.910352        1.545772        2.184506
  F           -0.250190        0.283905       -3.834394
  F            1.223474        1.243752       -2.543987
  F           -0.907937        1.547380       -2.182294
  O           -1.363956       -1.283441        1.459000
  O            1.106755       -1.634760        1.864608
  O            1.106668       -1.634953       -1.864592
  O           -1.363946       -1.283436       -1.459000
  N            0.359407       -0.005181        0.000008
  C            0.016477        0.628103        2.551308
  C            0.016595        0.628212       -2.551392
  N           -0.739031        5.605230       -6.207847
  N           -0.614260        7.653505       -6.837040
  C           -0.567913        4.392147       -5.414411
  C            0.693312        3.616559       -5.788367
  C            1.970191        4.434551       -5.591382
  C           -0.257390        6.799013       -5.872747
  C           -1.412314        5.681882       -7.395446
  C           -1.334051        6.985156       -7.798053
  C            3.207368        3.629739       -5.958262
  C           -0.288551        9.063962       -6.856865
  H           -0.540026        4.677938       -4.356117
  H           -1.451220        3.757932       -5.552600
  H            0.624828        3.301491       -6.836739
  H            0.741765        2.705567       -5.180222
  H            1.952748        5.330763       -6.219861
  H            2.046460        4.763805       -4.548872
  H            0.311017        7.038675       -4.987562
  H           -1.857223        4.791590       -7.796092
  H           -1.692804        7.539688       -8.643702
  H            3.175023        3.315993       -7.006510
  H            3.292232        2.734735       -5.333720
  H            4.108963        4.232563       -5.811722
  H            0.311431        9.323235       -5.980409
  H            0.281479        9.290043       -7.762137
  H           -1.213382        9.647088       -6.845476
