          40
  Built with Packmol                                             
  S           -0.004372       -0.782196        1.491805
  S           -0.004362       -0.782291       -1.491995
  F            1.222456        1.245943        2.541413
  F           -0.246716        0.283191        3.835006
  F           -0.910352        1.545772        2.184506
  F           -0.250190        0.283905       -3.834394
  F            1.223474        1.243752       -2.543987
  F           -0.907937        1.547380       -2.182294
  O           -1.363956       -1.283441        1.459000
  O            1.106755       -1.634760        1.864608
  O            1.106668       -1.634953       -1.864592
  O           -1.363946       -1.283436       -1.459000
  N            0.359407       -0.005181        0.000008
  C            0.016477        0.628103        2.551308
  C            0.016595        0.628212       -2.551392
  N           -0.762410       -3.415242       -7.738475
  N            0.187273       -2.467864       -9.414023
  C           -1.509911       -4.382443       -6.940881
  C           -3.008067       -4.088106       -6.909822
  C           -3.642779       -4.106283       -8.300916
  C           -0.517791       -3.540404       -9.039968
  C           -0.214807       -2.256349       -7.262373
  C            0.390289       -1.651359       -8.327542
  C           -5.135756       -3.824417       -8.233802
  C            0.660205       -2.214546      -10.758654
  H           -1.326029       -5.380908       -7.355241
  H           -1.107252       -4.378711       -5.921367
  H           -3.172655       -3.105548       -6.450982
  H           -3.501085       -4.829574       -6.270094
  H           -3.184903       -3.345910       -8.941752
  H           -3.477544       -5.080535       -8.774816
  H           -0.824553       -4.355079       -9.677367
  H           -0.332685       -2.017451       -6.223087
  H            0.943811       -0.743100       -8.468996
  H           -5.330193       -2.840425       -7.795329
  H           -5.650205       -4.578195       -7.629279
  H           -5.570117       -3.840639       -9.238198
  H            0.336706       -3.016347      -11.427863
  H            0.250753       -1.264336      -11.112228
  H            1.752611       -2.168739      -10.753288
