          40
  Built with Packmol                                             
  S           -0.004372       -0.782196        1.491805
  S           -0.004362       -0.782291       -1.491995
  F            1.222456        1.245943        2.541413
  F           -0.246716        0.283191        3.835006
  F           -0.910352        1.545772        2.184506
  F           -0.250190        0.283905       -3.834394
  F            1.223474        1.243752       -2.543987
  F           -0.907937        1.547380       -2.182294
  O           -1.363956       -1.283441        1.459000
  O            1.106755       -1.634760        1.864608
  O            1.106668       -1.634953       -1.864592
  O           -1.363946       -1.283436       -1.459000
  N            0.359407       -0.005181        0.000008
  C            0.016477        0.628103        2.551308
  C            0.016595        0.628212       -2.551392
  N           -0.995238       -2.222188       10.214195
  N           -3.097622       -1.943369       10.544539
  C            0.300846       -2.282809        9.545703
  C            0.593957       -3.659078        8.952375
  C           -0.440184       -4.085479        7.909750
  C           -2.135646       -1.885579        9.617913
  C           -1.214831       -2.500740       11.534711
  C           -2.552856       -2.324026       11.747314
  C           -0.111858       -5.451981        7.328540
  C           -4.495031       -1.648060       10.308089
  H            0.315470       -1.517944        8.760076
  H            1.079108       -2.014596       10.269531
  H            0.619632       -4.401256        9.759565
  H            1.591233       -3.642952        8.497100
  H           -1.437252       -4.140966        8.358375
  H           -0.482611       -3.346982        7.101125
  H           -2.264383       -1.611830        8.582266
  H           -0.383127       -2.790592       12.147359
  H           -3.203985       -2.416709       12.595118
  H           -0.096684       -6.217867        8.110522
  H            0.865656       -5.443860        6.835907
  H           -0.863453       -5.738865        6.586551
  H           -4.652455       -1.393783        9.256453
  H           -5.096920       -2.525598       10.559526
  H           -4.794563       -0.801585       10.931978
