          40
  Built with Packmol                                             
  S           -0.004372       -0.782196        1.491805
  S           -0.004362       -0.782291       -1.491995
  F            1.222456        1.245943        2.541413
  F           -0.246716        0.283191        3.835006
  F           -0.910352        1.545772        2.184506
  F           -0.250190        0.283905       -3.834394
  F            1.223474        1.243752       -2.543987
  F           -0.907937        1.547380       -2.182294
  O           -1.363956       -1.283441        1.459000
  O            1.106755       -1.634760        1.864608
  O            1.106668       -1.634953       -1.864592
  O           -1.363946       -1.283436       -1.459000
  N            0.359407       -0.005181        0.000008
  C            0.016477        0.628103        2.551308
  C            0.016595        0.628212       -2.551392
  N            5.714964       -0.714135        5.068689
  N            5.951527        1.368410        4.606168
  C            5.152643       -2.059765        5.127589
  C            4.234519       -2.262498        6.330924
  C            3.042053       -1.305233        6.332238
  C            5.148415        0.312483        4.440625
  C            6.891942       -0.325728        5.646129
  C            7.044568        1.000005        5.353077
  C            2.140799       -1.542542        7.534051
  C            5.700404        2.691940        4.076004
  H            4.604915       -2.241607        4.195190
  H            5.977485       -2.780912        5.161348
  H            4.812039       -2.120657        7.252550
  H            3.875470       -3.298441        6.331401
  H            3.384148       -0.265907        6.367742
  H            2.460925       -1.430270        5.411527
  H            4.217927        0.299256        3.894646
  H            7.463925       -1.050622        6.192432
  H            7.785615        1.744126        5.573224
  H            2.686959       -1.390426        8.470468
  H            1.742259       -2.562069        7.529925
  H            1.295471       -0.847648        7.517043
  H            4.747202        2.707483        3.540708
  H            5.661367        3.409435        4.900165
  H            6.504958        2.962134        3.386680
