          40
  Built with Packmol                                             
  S           -0.004372       -0.782196        1.491805
  S           -0.004362       -0.782291       -1.491995
  F            1.222456        1.245943        2.541413
  F           -0.246716        0.283191        3.835006
  F           -0.910352        1.545772        2.184506
  F           -0.250190        0.283905       -3.834394
  F            1.223474        1.243752       -2.543987
  F           -0.907937        1.547380       -2.182294
  O           -1.363956       -1.283441        1.459000
  O            1.106755       -1.634760        1.864608
  O            1.106668       -1.634953       -1.864592
  O           -1.363946       -1.283436       -1.459000
  N            0.359407       -0.005181        0.000008
  C            0.016477        0.628103        2.551308
  C            0.016595        0.628212       -2.551392
  N           -7.809910        0.092574        5.086496
  N           -6.784847       -0.623238        6.831129
  C           -8.364425        0.149529        3.737548
  C           -7.390129        0.747101        2.724767
  C           -6.089842       -0.050019        2.614364
  C           -7.124547       -0.936705        5.576650
  C           -7.917135        1.080984        6.025178
  C           -7.265026        0.627480        7.136856
  C           -5.148697        0.562059        1.588432
  C           -6.028138       -1.476598        7.722777
  H           -8.645887       -0.868038        3.441277
  H           -9.285864        0.742646        3.764363
  H           -7.157215        1.778991        3.014586
  H           -7.880391        0.790011        1.745025
  H           -5.569988       -0.071851        3.577568
  H           -6.309107       -1.086527        2.333958
  H           -6.888673       -1.856082        5.063634
  H           -8.445319        1.979797        5.771720
  H           -7.071303        1.022543        8.115492
  H           -4.884158        1.588572        1.861554
  H           -5.608392        0.577931        0.595096
  H           -4.225021       -0.021571        1.525637
  H           -5.755170       -2.404450        7.212919
  H           -5.118068       -0.956583        8.034099
  H           -6.638372       -1.713096        8.598654
