40
Coordinates from ORCA-job complex
  N         -33.69534919129371    -22.21023842102842     -8.04824889928675
  N         -35.48252692524918    -23.40351893938871     -7.75493285301774
  C         -32.40452154933991    -21.73542144069162     -8.58291222015195
  C         -31.22577591440165    -22.17571631252611     -7.72078503435839
  C         -31.05754845936908    -23.69038468382795     -7.61688461912455
  C         -34.41352669779231    -23.22148741577872     -8.53136858433486
  C         -34.32212081660657    -21.73170449837703     -6.91957447962154
  C         -35.44289131615389    -22.47622604229132     -6.73646309066987
  C         -29.82428926908491    -24.08540071219250     -6.80780500999681
  C         -36.52612949474744    -24.41123271778966     -7.95339513013391
  H         -32.32065198788966    -22.13033646342066     -9.59535826498337
  H         -32.46734154887768    -20.64978293846370     -8.65207436758532
  H         -31.31677290220124    -21.73619500713486     -6.72273583772260
  H         -30.33113389554707    -21.73187916063927     -8.16589875587018
  H         -31.94637666860469    -24.13232603849075     -7.15332828762261
  H         -30.98699267777869    -24.11526549380747     -8.62443002145542
  H         -34.17043345434490    -23.79886492589017     -9.40624178858882
  H         -33.92757265416611    -20.90851137710604     -6.35138135496871
  H         -36.20778621458943    -22.42133275681784     -5.98239592253399
  H         -29.88003042801579    -23.69697960750388     -5.78862709872586
  H         -28.91272467916823    -23.69517133393943     -7.26443758298654
  H         -29.72770244840611    -25.16957322847039     -6.74594728351851
  H         -36.28215260947417    -25.00502667103701     -8.83023873667242
  H         -36.57615731133485    -25.05868994541531     -7.08006143027547
  H         -37.48455739241390    -23.91820296087172     -8.10476103352692
  O          12.34074963860961      5.06925571801538      1.95271494575676
  F           9.86639289152397      6.88240257782054      1.96344393599503
  O           9.52511470435501      3.98458561210739      1.26510451377859
  F          14.39850348483945      6.84904772289205      0.71397242836015
  F           7.85613902419038      6.50031152660754      1.24489723489303
  S          12.48068170405411      5.04612683830864      0.52002380270958
  C           9.15207841882593      6.55220243251188      0.88307668515722
  F          12.41949651668241      7.71534138587995      0.51261359296548
  C          13.20855660586804      6.71333664879998      0.10068140875179
  O          13.41026171171898      4.11968925607875     -0.07178590596915
  S           9.67407245269901      4.90450907315594      0.16864523190973
  N          11.14980105391011      5.13925425479012     -0.33011019274909
  F           9.28390224951920      7.53662685732396     -0.02010996188802
  F          13.40924346548954      6.85743827108628     -1.21623854363157
  O           8.81664441696705      4.77204899502332     -0.97922532720595
